version 2
run General-0-20191107-02:10:56-39645
attr configname General
attr datetime 20191107-02:10:56
attr experiment General
attr inifile 14_example_strict-priority_non-fifo_host4.ini
attr iterationvars ""
attr iterationvarsf ""
attr measurement ""
attr network TestScenario8
attr processid 39645
attr repetition 0
attr replication #0
attr resultdir results_strict_priority
attr runnumber 0
attr seedset 0
param **.displayAddresses true
param **.verbose true
param **.promiscuous true
param **.registerProtocol true
param **.*.clock.clockRate "\"1us\""
param **.robotController1.numberOfFlow 2
param **.robotController2.numberOfFlow 1
param **.switch*.processingDelay[*].delay 5us
param **.filteringDatabase.database "xmldoc(\"xml/routes/TestScenario8/routes_flat.xml\", \"/filteringDatabases/\")"
param **.filteringDatabase.cycle "xmldoc(\"xml/schedules/TestScenario8/switches/GCLs_flat.xml\", \"/schedule/\")"
param **.gateController.initialSchedule "xmldoc(\"xml/schedules/TestScenario8/switches/GCLs_flat.xml\")"
param **.gateController.enableHoldAndRelease false
param **.switch*.eth[*].queuing.tsAlgorithms[0].typename "\"StrictPriority\""
param **.switch*.eth[*].queuing.tsAlgorithms[1].typename "\"StrictPriority\""
param **.switch*.eth[*].queuing.tsAlgorithms[2].typename "\"StrictPriority\""
param **.switch*.eth[*].queuing.tsAlgorithms[3].typename "\"StrictPriority\""
param **.switch*.eth[*].queuing.tsAlgorithms[4].typename "\"StrictPriority\""
param **.switch*.eth[*].queuing.tsAlgorithms[5].typename "\"StrictPriority\""
param **.switch*.eth[*].queuing.tsAlgorithms[6].typename "\"StrictPriority\""
param **.switch*.eth[*].queuing.tsAlgorithms[7].typename "\"NonFIFO\""
param **.queues[0].expressQueue true
param **.queues[1].expressQueue true
param **.queues[2].expressQueue true
param **.queues[3].expressQueue true
param **.queues[4].expressQueue true
param **.queues[5].expressQueue true
param **.queues[6].expressQueue true
param **.queues[7].expressQueue true
param **.queues[*].bufferCapacity 363360b
param **.switchA.eth[0].mac.enablePreemptingFrames false
param **.switchA.eth[1].mac.enablePreemptingFrames false
param **.robotController1.flow[0].trafGenSchedApp.initialSchedule "xmldoc(\"xml/schedules/TestScenario8/hosts/robotController1/flow1.xml\")"
param **.robotController1.flow[1].trafGenSchedApp.initialSchedule "xmldoc(\"xml/schedules/TestScenario8/hosts/robotController1/flow2.xml\")"
param **.robotController2.flow[0].trafGenSchedApp.initialSchedule "xmldoc(\"xml/schedules/TestScenario8/hosts/robotController2/flow3.xml\")"
param **.roboticArm1.trafGenApp.numPacketsPerBurst 0
param **.roboticArm1.trafGenApp.sendInterval 1ms
param **.roboticArm1.trafGenApp.packetLength 100B
param **.roboticArm2.trafGenApp.numPacketsPerBurst 0
param **.roboticArm2.trafGenApp.sendInterval 1ms
param **.roboticArm2.trafGenApp.packetLength 100B

vector 0 TestScenario8.switchA.eth[0].queuing.queues[0] queueLength:vector ETV
attr interpolationmode sample-hold
attr title "queue length, vector"
vector 1 TestScenario8.switchA.eth[0].queuing.queues[1] queueLength:vector ETV
attr interpolationmode sample-hold
attr title "queue length, vector"
vector 2 TestScenario8.switchA.eth[0].queuing.queues[2] queueLength:vector ETV
attr interpolationmode sample-hold
attr title "queue length, vector"
vector 3 TestScenario8.switchA.eth[0].queuing.queues[3] queueLength:vector ETV
attr interpolationmode sample-hold
attr title "queue length, vector"
vector 4 TestScenario8.switchA.eth[0].queuing.queues[4] queueLength:vector ETV
attr interpolationmode sample-hold
attr title "queue length, vector"
vector 5 TestScenario8.switchA.eth[0].queuing.queues[5] queueLength:vector ETV
attr interpolationmode sample-hold
attr title "queue length, vector"
vector 6 TestScenario8.switchA.eth[0].queuing.queues[6] queueLength:vector ETV
attr interpolationmode sample-hold
attr title "queue length, vector"
vector 7 TestScenario8.switchA.eth[0].queuing.queues[7] queueLength:vector ETV
attr interpolationmode sample-hold
attr title "queue length, vector"
vector 8 TestScenario8.switchA.eth[1].queuing.queues[0] queueLength:vector ETV
attr interpolationmode sample-hold
attr title "queue length, vector"
vector 9 TestScenario8.switchA.eth[1].queuing.queues[1] queueLength:vector ETV
attr interpolationmode sample-hold
attr title "queue length, vector"
vector 10 TestScenario8.switchA.eth[1].queuing.queues[2] queueLength:vector ETV
attr interpolationmode sample-hold
attr title "queue length, vector"
vector 11 TestScenario8.switchA.eth[1].queuing.queues[3] queueLength:vector ETV
attr interpolationmode sample-hold
attr title "queue length, vector"
vector 12 TestScenario8.switchA.eth[1].queuing.queues[4] queueLength:vector ETV
attr interpolationmode sample-hold
attr title "queue length, vector"
vector 13 TestScenario8.switchA.eth[1].queuing.queues[5] queueLength:vector ETV
attr interpolationmode sample-hold
attr title "queue length, vector"
vector 14 TestScenario8.switchA.eth[1].queuing.queues[6] queueLength:vector ETV
attr interpolationmode sample-hold
attr title "queue length, vector"
vector 15 TestScenario8.switchA.eth[1].queuing.queues[7] queueLength:vector ETV
attr interpolationmode sample-hold
attr title "queue length, vector"
vector 16 TestScenario8.switchA.eth[2].queuing.queues[0] queueLength:vector ETV
attr interpolationmode sample-hold
attr title "queue length, vector"
vector 17 TestScenario8.switchA.eth[2].queuing.queues[1] queueLength:vector ETV
attr interpolationmode sample-hold
attr title "queue length, vector"
vector 18 TestScenario8.switchA.eth[2].queuing.queues[2] queueLength:vector ETV
attr interpolationmode sample-hold
attr title "queue length, vector"
vector 19 TestScenario8.switchA.eth[2].queuing.queues[3] queueLength:vector ETV
attr interpolationmode sample-hold
attr title "queue length, vector"
vector 20 TestScenario8.switchA.eth[2].queuing.queues[4] queueLength:vector ETV
attr interpolationmode sample-hold
attr title "queue length, vector"
vector 21 TestScenario8.switchA.eth[2].queuing.queues[5] queueLength:vector ETV
attr interpolationmode sample-hold
attr title "queue length, vector"
vector 22 TestScenario8.switchA.eth[2].queuing.queues[6] queueLength:vector ETV
attr interpolationmode sample-hold
attr title "queue length, vector"
vector 23 TestScenario8.switchA.eth[2].queuing.queues[7] queueLength:vector ETV
attr interpolationmode sample-hold
attr title "queue length, vector"
vector 24 TestScenario8.switchB.eth[0].queuing.queues[0] queueLength:vector ETV
attr interpolationmode sample-hold
attr title "queue length, vector"
vector 25 TestScenario8.switchB.eth[0].queuing.queues[1] queueLength:vector ETV
attr interpolationmode sample-hold
attr title "queue length, vector"
vector 26 TestScenario8.switchB.eth[0].queuing.queues[2] queueLength:vector ETV
attr interpolationmode sample-hold
attr title "queue length, vector"
vector 27 TestScenario8.switchB.eth[0].queuing.queues[3] queueLength:vector ETV
attr interpolationmode sample-hold
attr title "queue length, vector"
vector 28 TestScenario8.switchB.eth[0].queuing.queues[4] queueLength:vector ETV
attr interpolationmode sample-hold
attr title "queue length, vector"
vector 29 TestScenario8.switchB.eth[0].queuing.queues[5] queueLength:vector ETV
attr interpolationmode sample-hold
attr title "queue length, vector"
vector 30 TestScenario8.switchB.eth[0].queuing.queues[6] queueLength:vector ETV
attr interpolationmode sample-hold
attr title "queue length, vector"
vector 31 TestScenario8.switchB.eth[0].queuing.queues[7] queueLength:vector ETV
attr interpolationmode sample-hold
attr title "queue length, vector"
vector 32 TestScenario8.switchB.eth[1].queuing.queues[0] queueLength:vector ETV
attr interpolationmode sample-hold
attr title "queue length, vector"
vector 33 TestScenario8.switchB.eth[1].queuing.queues[1] queueLength:vector ETV
attr interpolationmode sample-hold
attr title "queue length, vector"
vector 34 TestScenario8.switchB.eth[1].queuing.queues[2] queueLength:vector ETV
attr interpolationmode sample-hold
attr title "queue length, vector"
vector 35 TestScenario8.switchB.eth[1].queuing.queues[3] queueLength:vector ETV
attr interpolationmode sample-hold
attr title "queue length, vector"
vector 36 TestScenario8.switchB.eth[1].queuing.queues[4] queueLength:vector ETV
attr interpolationmode sample-hold
attr title "queue length, vector"
vector 37 TestScenario8.switchB.eth[1].queuing.queues[5] queueLength:vector ETV
attr interpolationmode sample-hold
attr title "queue length, vector"
vector 38 TestScenario8.switchB.eth[1].queuing.queues[6] queueLength:vector ETV
attr interpolationmode sample-hold
attr title "queue length, vector"
vector 39 TestScenario8.switchB.eth[1].queuing.queues[7] queueLength:vector ETV
attr interpolationmode sample-hold
attr title "queue length, vector"
vector 40 TestScenario8.switchB.eth[2].queuing.queues[0] queueLength:vector ETV
attr interpolationmode sample-hold
attr title "queue length, vector"
vector 41 TestScenario8.switchB.eth[2].queuing.queues[1] queueLength:vector ETV
attr interpolationmode sample-hold
attr title "queue length, vector"
vector 42 TestScenario8.switchB.eth[2].queuing.queues[2] queueLength:vector ETV
attr interpolationmode sample-hold
attr title "queue length, vector"
vector 43 TestScenario8.switchB.eth[2].queuing.queues[3] queueLength:vector ETV
attr interpolationmode sample-hold
attr title "queue length, vector"
vector 44 TestScenario8.switchB.eth[2].queuing.queues[4] queueLength:vector ETV
attr interpolationmode sample-hold
attr title "queue length, vector"
vector 45 TestScenario8.switchB.eth[2].queuing.queues[5] queueLength:vector ETV
attr interpolationmode sample-hold
attr title "queue length, vector"
vector 46 TestScenario8.switchB.eth[2].queuing.queues[6] queueLength:vector ETV
attr interpolationmode sample-hold
attr title "queue length, vector"
vector 47 TestScenario8.switchB.eth[2].queuing.queues[7] queueLength:vector ETV
attr interpolationmode sample-hold
attr title "queue length, vector"
vector 48 TestScenario8.switchB.eth[3].queuing.queues[0] queueLength:vector ETV
attr interpolationmode sample-hold
attr title "queue length, vector"
vector 49 TestScenario8.switchB.eth[3].queuing.queues[1] queueLength:vector ETV
attr interpolationmode sample-hold
attr title "queue length, vector"
vector 50 TestScenario8.switchB.eth[3].queuing.queues[2] queueLength:vector ETV
attr interpolationmode sample-hold
attr title "queue length, vector"
vector 51 TestScenario8.switchB.eth[3].queuing.queues[3] queueLength:vector ETV
attr interpolationmode sample-hold
attr title "queue length, vector"
vector 52 TestScenario8.switchB.eth[3].queuing.queues[4] queueLength:vector ETV
attr interpolationmode sample-hold
attr title "queue length, vector"
vector 53 TestScenario8.switchB.eth[3].queuing.queues[5] queueLength:vector ETV
attr interpolationmode sample-hold
attr title "queue length, vector"
vector 54 TestScenario8.switchB.eth[3].queuing.queues[6] queueLength:vector ETV
attr interpolationmode sample-hold
attr title "queue length, vector"
vector 55 TestScenario8.switchB.eth[3].queuing.queues[7] queueLength:vector ETV
attr interpolationmode sample-hold
attr title "queue length, vector"
vector 56 TestScenario8.switchC.eth[0].queuing.queues[0] queueLength:vector ETV
attr interpolationmode sample-hold
attr title "queue length, vector"
vector 57 TestScenario8.switchC.eth[0].queuing.queues[1] queueLength:vector ETV
attr interpolationmode sample-hold
attr title "queue length, vector"
vector 58 TestScenario8.switchC.eth[0].queuing.queues[2] queueLength:vector ETV
attr interpolationmode sample-hold
attr title "queue length, vector"
vector 59 TestScenario8.switchC.eth[0].queuing.queues[3] queueLength:vector ETV
attr interpolationmode sample-hold
attr title "queue length, vector"
vector 60 TestScenario8.switchC.eth[0].queuing.queues[4] queueLength:vector ETV
attr interpolationmode sample-hold
attr title "queue length, vector"
vector 61 TestScenario8.switchC.eth[0].queuing.queues[5] queueLength:vector ETV
attr interpolationmode sample-hold
attr title "queue length, vector"
vector 62 TestScenario8.switchC.eth[0].queuing.queues[6] queueLength:vector ETV
attr interpolationmode sample-hold
attr title "queue length, vector"
vector 63 TestScenario8.switchC.eth[0].queuing.queues[7] queueLength:vector ETV
attr interpolationmode sample-hold
attr title "queue length, vector"
vector 64 TestScenario8.switchC.eth[1].queuing.queues[0] queueLength:vector ETV
attr interpolationmode sample-hold
attr title "queue length, vector"
vector 65 TestScenario8.switchC.eth[1].queuing.queues[1] queueLength:vector ETV
attr interpolationmode sample-hold
attr title "queue length, vector"
vector 66 TestScenario8.switchC.eth[1].queuing.queues[2] queueLength:vector ETV
attr interpolationmode sample-hold
attr title "queue length, vector"
vector 67 TestScenario8.switchC.eth[1].queuing.queues[3] queueLength:vector ETV
attr interpolationmode sample-hold
attr title "queue length, vector"
vector 68 TestScenario8.switchC.eth[1].queuing.queues[4] queueLength:vector ETV
attr interpolationmode sample-hold
attr title "queue length, vector"
vector 69 TestScenario8.switchC.eth[1].queuing.queues[5] queueLength:vector ETV
attr interpolationmode sample-hold
attr title "queue length, vector"
vector 70 TestScenario8.switchC.eth[1].queuing.queues[6] queueLength:vector ETV
attr interpolationmode sample-hold
attr title "queue length, vector"
vector 71 TestScenario8.switchC.eth[1].queuing.queues[7] queueLength:vector ETV
attr interpolationmode sample-hold
attr title "queue length, vector"
vector 72 TestScenario8.switchC.eth[2].queuing.queues[0] queueLength:vector ETV
attr interpolationmode sample-hold
attr title "queue length, vector"
vector 73 TestScenario8.switchC.eth[2].queuing.queues[1] queueLength:vector ETV
attr interpolationmode sample-hold
attr title "queue length, vector"
vector 74 TestScenario8.switchC.eth[2].queuing.queues[2] queueLength:vector ETV
attr interpolationmode sample-hold
attr title "queue length, vector"
vector 75 TestScenario8.switchC.eth[2].queuing.queues[3] queueLength:vector ETV
attr interpolationmode sample-hold
attr title "queue length, vector"
vector 76 TestScenario8.switchC.eth[2].queuing.queues[4] queueLength:vector ETV
attr interpolationmode sample-hold
attr title "queue length, vector"
vector 77 TestScenario8.switchC.eth[2].queuing.queues[5] queueLength:vector ETV
attr interpolationmode sample-hold
attr title "queue length, vector"
vector 78 TestScenario8.switchC.eth[2].queuing.queues[6] queueLength:vector ETV
attr interpolationmode sample-hold
attr title "queue length, vector"
vector 79 TestScenario8.switchC.eth[2].queuing.queues[7] queueLength:vector ETV
attr interpolationmode sample-hold
attr title "queue length, vector"
vector 80 TestScenario8.roboticArm1.eth.queuing.queues[0] queueLength:vector ETV
attr interpolationmode sample-hold
attr title "queue length, vector"
vector 81 TestScenario8.roboticArm1.eth.queuing.queues[1] queueLength:vector ETV
attr interpolationmode sample-hold
attr title "queue length, vector"
vector 82 TestScenario8.roboticArm1.eth.queuing.queues[2] queueLength:vector ETV
attr interpolationmode sample-hold
attr title "queue length, vector"
vector 83 TestScenario8.roboticArm1.eth.queuing.queues[3] queueLength:vector ETV
attr interpolationmode sample-hold
attr title "queue length, vector"
vector 84 TestScenario8.roboticArm1.eth.queuing.queues[4] queueLength:vector ETV
attr interpolationmode sample-hold
attr title "queue length, vector"
vector 85 TestScenario8.roboticArm1.eth.queuing.queues[5] queueLength:vector ETV
attr interpolationmode sample-hold
attr title "queue length, vector"
vector 86 TestScenario8.roboticArm1.eth.queuing.queues[6] queueLength:vector ETV
attr interpolationmode sample-hold
attr title "queue length, vector"
vector 87 TestScenario8.roboticArm1.eth.queuing.queues[7] queueLength:vector ETV
attr interpolationmode sample-hold
attr title "queue length, vector"
vector 88 TestScenario8.roboticArm2.eth.queuing.queues[0] queueLength:vector ETV
attr interpolationmode sample-hold
attr title "queue length, vector"
vector 89 TestScenario8.roboticArm2.eth.queuing.queues[1] queueLength:vector ETV
attr interpolationmode sample-hold
attr title "queue length, vector"
vector 90 TestScenario8.roboticArm2.eth.queuing.queues[2] queueLength:vector ETV
attr interpolationmode sample-hold
attr title "queue length, vector"
vector 91 TestScenario8.roboticArm2.eth.queuing.queues[3] queueLength:vector ETV
attr interpolationmode sample-hold
attr title "queue length, vector"
vector 92 TestScenario8.roboticArm2.eth.queuing.queues[4] queueLength:vector ETV
attr interpolationmode sample-hold
attr title "queue length, vector"
vector 93 TestScenario8.roboticArm2.eth.queuing.queues[5] queueLength:vector ETV
attr interpolationmode sample-hold
attr title "queue length, vector"
vector 94 TestScenario8.roboticArm2.eth.queuing.queues[6] queueLength:vector ETV
attr interpolationmode sample-hold
attr title "queue length, vector"
vector 95 TestScenario8.roboticArm2.eth.queuing.queues[7] queueLength:vector ETV
attr interpolationmode sample-hold
attr title "queue length, vector"
vector 96 TestScenario8.switchA.eth[0].queuing.tGates[0] gateStateChanged:vector ETV
attr interpolationmode none
attr title "gateStateChanged, vector"
vector 97 TestScenario8.switchA.eth[0].queuing.tGates[1] gateStateChanged:vector ETV
attr interpolationmode none
attr title "gateStateChanged, vector"
vector 98 TestScenario8.switchA.eth[0].queuing.tGates[2] gateStateChanged:vector ETV
attr interpolationmode none
attr title "gateStateChanged, vector"
vector 99 TestScenario8.switchA.eth[0].queuing.tGates[3] gateStateChanged:vector ETV
attr interpolationmode none
attr title "gateStateChanged, vector"
vector 100 TestScenario8.switchA.eth[0].queuing.tGates[4] gateStateChanged:vector ETV
attr interpolationmode none
attr title "gateStateChanged, vector"
vector 101 TestScenario8.switchA.eth[0].queuing.tGates[5] gateStateChanged:vector ETV
attr interpolationmode none
attr title "gateStateChanged, vector"
vector 102 TestScenario8.switchA.eth[0].queuing.tGates[6] gateStateChanged:vector ETV
attr interpolationmode none
attr title "gateStateChanged, vector"
vector 103 TestScenario8.switchA.eth[1].queuing.tGates[0] gateStateChanged:vector ETV
attr interpolationmode none
attr title "gateStateChanged, vector"
vector 104 TestScenario8.switchA.eth[1].queuing.tGates[1] gateStateChanged:vector ETV
attr interpolationmode none
attr title "gateStateChanged, vector"
vector 105 TestScenario8.switchA.eth[1].queuing.tGates[2] gateStateChanged:vector ETV
attr interpolationmode none
attr title "gateStateChanged, vector"
vector 106 TestScenario8.switchA.eth[1].queuing.tGates[3] gateStateChanged:vector ETV
attr interpolationmode none
attr title "gateStateChanged, vector"
vector 107 TestScenario8.switchA.eth[1].queuing.tGates[4] gateStateChanged:vector ETV
attr interpolationmode none
attr title "gateStateChanged, vector"
vector 108 TestScenario8.switchA.eth[1].queuing.tGates[5] gateStateChanged:vector ETV
attr interpolationmode none
attr title "gateStateChanged, vector"
vector 109 TestScenario8.switchA.eth[1].queuing.tGates[6] gateStateChanged:vector ETV
attr interpolationmode none
attr title "gateStateChanged, vector"
vector 110 TestScenario8.switchA.eth[2].queuing.tGates[0] gateStateChanged:vector ETV
attr interpolationmode none
attr title "gateStateChanged, vector"
vector 111 TestScenario8.switchA.eth[2].queuing.tGates[1] gateStateChanged:vector ETV
attr interpolationmode none
attr title "gateStateChanged, vector"
vector 112 TestScenario8.switchA.eth[2].queuing.tGates[2] gateStateChanged:vector ETV
attr interpolationmode none
attr title "gateStateChanged, vector"
vector 113 TestScenario8.switchA.eth[2].queuing.tGates[3] gateStateChanged:vector ETV
attr interpolationmode none
attr title "gateStateChanged, vector"
vector 114 TestScenario8.switchA.eth[2].queuing.tGates[4] gateStateChanged:vector ETV
attr interpolationmode none
attr title "gateStateChanged, vector"
vector 115 TestScenario8.switchA.eth[2].queuing.tGates[5] gateStateChanged:vector ETV
attr interpolationmode none
attr title "gateStateChanged, vector"
vector 116 TestScenario8.switchA.eth[2].queuing.tGates[6] gateStateChanged:vector ETV
attr interpolationmode none
attr title "gateStateChanged, vector"
vector 117 TestScenario8.switchB.eth[0].queuing.tGates[0] gateStateChanged:vector ETV
attr interpolationmode none
attr title "gateStateChanged, vector"
vector 118 TestScenario8.switchB.eth[0].queuing.tGates[1] gateStateChanged:vector ETV
attr interpolationmode none
attr title "gateStateChanged, vector"
vector 119 TestScenario8.switchB.eth[0].queuing.tGates[2] gateStateChanged:vector ETV
attr interpolationmode none
attr title "gateStateChanged, vector"
vector 120 TestScenario8.switchB.eth[0].queuing.tGates[3] gateStateChanged:vector ETV
attr interpolationmode none
attr title "gateStateChanged, vector"
vector 121 TestScenario8.switchB.eth[0].queuing.tGates[4] gateStateChanged:vector ETV
attr interpolationmode none
attr title "gateStateChanged, vector"
vector 122 TestScenario8.switchB.eth[0].queuing.tGates[5] gateStateChanged:vector ETV
attr interpolationmode none
attr title "gateStateChanged, vector"
vector 123 TestScenario8.switchB.eth[0].queuing.tGates[6] gateStateChanged:vector ETV
attr interpolationmode none
attr title "gateStateChanged, vector"
vector 124 TestScenario8.switchB.eth[1].queuing.tGates[0] gateStateChanged:vector ETV
attr interpolationmode none
attr title "gateStateChanged, vector"
vector 125 TestScenario8.switchB.eth[1].queuing.tGates[1] gateStateChanged:vector ETV
attr interpolationmode none
attr title "gateStateChanged, vector"
vector 126 TestScenario8.switchB.eth[1].queuing.tGates[2] gateStateChanged:vector ETV
attr interpolationmode none
attr title "gateStateChanged, vector"
vector 127 TestScenario8.switchB.eth[1].queuing.tGates[3] gateStateChanged:vector ETV
attr interpolationmode none
attr title "gateStateChanged, vector"
vector 128 TestScenario8.switchB.eth[1].queuing.tGates[4] gateStateChanged:vector ETV
attr interpolationmode none
attr title "gateStateChanged, vector"
vector 129 TestScenario8.switchB.eth[1].queuing.tGates[5] gateStateChanged:vector ETV
attr interpolationmode none
attr title "gateStateChanged, vector"
vector 130 TestScenario8.switchB.eth[1].queuing.tGates[6] gateStateChanged:vector ETV
attr interpolationmode none
attr title "gateStateChanged, vector"
vector 131 TestScenario8.switchB.eth[2].queuing.tGates[0] gateStateChanged:vector ETV
attr interpolationmode none
attr title "gateStateChanged, vector"
vector 132 TestScenario8.switchB.eth[2].queuing.tGates[1] gateStateChanged:vector ETV
attr interpolationmode none
attr title "gateStateChanged, vector"
vector 133 TestScenario8.switchB.eth[2].queuing.tGates[2] gateStateChanged:vector ETV
attr interpolationmode none
attr title "gateStateChanged, vector"
vector 134 TestScenario8.switchB.eth[2].queuing.tGates[3] gateStateChanged:vector ETV
attr interpolationmode none
attr title "gateStateChanged, vector"
vector 135 TestScenario8.switchB.eth[2].queuing.tGates[4] gateStateChanged:vector ETV
attr interpolationmode none
attr title "gateStateChanged, vector"
vector 136 TestScenario8.switchB.eth[2].queuing.tGates[5] gateStateChanged:vector ETV
attr interpolationmode none
attr title "gateStateChanged, vector"
vector 137 TestScenario8.switchB.eth[2].queuing.tGates[6] gateStateChanged:vector ETV
attr interpolationmode none
attr title "gateStateChanged, vector"
vector 138 TestScenario8.switchB.eth[3].queuing.tGates[0] gateStateChanged:vector ETV
attr interpolationmode none
attr title "gateStateChanged, vector"
vector 139 TestScenario8.switchB.eth[3].queuing.tGates[1] gateStateChanged:vector ETV
attr interpolationmode none
attr title "gateStateChanged, vector"
vector 140 TestScenario8.switchB.eth[3].queuing.tGates[2] gateStateChanged:vector ETV
attr interpolationmode none
attr title "gateStateChanged, vector"
vector 141 TestScenario8.switchB.eth[3].queuing.tGates[3] gateStateChanged:vector ETV
attr interpolationmode none
attr title "gateStateChanged, vector"
vector 142 TestScenario8.switchB.eth[3].queuing.tGates[4] gateStateChanged:vector ETV
attr interpolationmode none
attr title "gateStateChanged, vector"
vector 143 TestScenario8.switchB.eth[3].queuing.tGates[5] gateStateChanged:vector ETV
attr interpolationmode none
attr title "gateStateChanged, vector"
vector 144 TestScenario8.switchB.eth[3].queuing.tGates[6] gateStateChanged:vector ETV
attr interpolationmode none
attr title "gateStateChanged, vector"
vector 145 TestScenario8.switchC.eth[0].queuing.tGates[0] gateStateChanged:vector ETV
attr interpolationmode none
attr title "gateStateChanged, vector"
vector 146 TestScenario8.switchC.eth[0].queuing.tGates[1] gateStateChanged:vector ETV
attr interpolationmode none
attr title "gateStateChanged, vector"
vector 147 TestScenario8.switchC.eth[0].queuing.tGates[2] gateStateChanged:vector ETV
attr interpolationmode none
attr title "gateStateChanged, vector"
vector 148 TestScenario8.switchC.eth[0].queuing.tGates[3] gateStateChanged:vector ETV
attr interpolationmode none
attr title "gateStateChanged, vector"
vector 149 TestScenario8.switchC.eth[0].queuing.tGates[4] gateStateChanged:vector ETV
attr interpolationmode none
attr title "gateStateChanged, vector"
vector 150 TestScenario8.switchC.eth[0].queuing.tGates[5] gateStateChanged:vector ETV
attr interpolationmode none
attr title "gateStateChanged, vector"
vector 151 TestScenario8.switchC.eth[0].queuing.tGates[6] gateStateChanged:vector ETV
attr interpolationmode none
attr title "gateStateChanged, vector"
vector 152 TestScenario8.switchC.eth[1].queuing.tGates[0] gateStateChanged:vector ETV
attr interpolationmode none
attr title "gateStateChanged, vector"
vector 153 TestScenario8.switchC.eth[1].queuing.tGates[1] gateStateChanged:vector ETV
attr interpolationmode none
attr title "gateStateChanged, vector"
vector 154 TestScenario8.switchC.eth[1].queuing.tGates[2] gateStateChanged:vector ETV
attr interpolationmode none
attr title "gateStateChanged, vector"
vector 155 TestScenario8.switchC.eth[1].queuing.tGates[3] gateStateChanged:vector ETV
attr interpolationmode none
attr title "gateStateChanged, vector"
vector 156 TestScenario8.switchC.eth[1].queuing.tGates[4] gateStateChanged:vector ETV
attr interpolationmode none
attr title "gateStateChanged, vector"
vector 157 TestScenario8.switchC.eth[1].queuing.tGates[5] gateStateChanged:vector ETV
attr interpolationmode none
attr title "gateStateChanged, vector"
vector 158 TestScenario8.switchC.eth[1].queuing.tGates[6] gateStateChanged:vector ETV
attr interpolationmode none
attr title "gateStateChanged, vector"
vector 159 TestScenario8.switchC.eth[2].queuing.tGates[0] gateStateChanged:vector ETV
attr interpolationmode none
attr title "gateStateChanged, vector"
vector 160 TestScenario8.switchC.eth[2].queuing.tGates[1] gateStateChanged:vector ETV
attr interpolationmode none
attr title "gateStateChanged, vector"
vector 161 TestScenario8.switchC.eth[2].queuing.tGates[2] gateStateChanged:vector ETV
attr interpolationmode none
attr title "gateStateChanged, vector"
vector 162 TestScenario8.switchC.eth[2].queuing.tGates[3] gateStateChanged:vector ETV
attr interpolationmode none
attr title "gateStateChanged, vector"
vector 163 TestScenario8.switchC.eth[2].queuing.tGates[4] gateStateChanged:vector ETV
attr interpolationmode none
attr title "gateStateChanged, vector"
vector 164 TestScenario8.switchC.eth[2].queuing.tGates[5] gateStateChanged:vector ETV
attr interpolationmode none
attr title "gateStateChanged, vector"
vector 165 TestScenario8.switchC.eth[2].queuing.tGates[6] gateStateChanged:vector ETV
attr interpolationmode none
attr title "gateStateChanged, vector"
vector 166 TestScenario8.robotController1.flow[0].vlanEncap encapPk:vector(packetBytes) ETV
attr interpolationmode none
attr source encapPk
attr title "packets encapsulated, vector(packetBytes)"
vector 167 TestScenario8.robotController1.flow[0].eth.encap encapPk:vector(packetBytes) ETV
attr interpolationmode none
attr source encapPk
attr title "packets encapsulated, vector(packetBytes)"
vector 168 TestScenario8.robotController1.flow[0].eth.mac packetReceivedFromUpper:vector(packetBytes) ETV
attr interpolationmode none
attr source packetReceivedFromUpper
attr title "packet bytes from higher layer, vector(packetBytes)"
vector 169 TestScenario8.robotController1.toHost[0].mac rxPkOk:vector(packetBytes) ETV
attr interpolationmode none
attr source rxPkOk
attr title "packets received OK, vector(packetBytes)"
vector 170 TestScenario8.robotController1.toHost[0].mac passedUpPk:vector(packetBytes) ETV
attr interpolationmode none
attr source packetSentToUpper
attr title "packets passed to higher layer, vector(packetBytes)"
vector 171 TestScenario8.robotController1.flow[0].eth.mac txPk:vector(packetBytes) ETV
attr interpolationmode none
attr source packetSentToLower
attr title "packets transmitted, vector(packetBytes)"
vector 172 TestScenario8.robotController1.toChannel.mac packetReceivedFromUpper:vector(packetBytes) ETV
attr interpolationmode none
attr source packetReceivedFromUpper
attr title "packet bytes from higher layer, vector(packetBytes)"
vector 173 TestScenario8.robotController1.toChannel.mac txPk:vector(packetBytes) ETV
attr interpolationmode none
attr source packetSentToLower
attr title "packets transmitted, vector(packetBytes)"
vector 174 TestScenario8.switchA.eth[0].mac receivedExpressFrame:vector(packetBytes) ETV
attr interpolationmode none
attr title "receivedExpressFrame, vector(packetBytes)"
vector 175 TestScenario8.switchA.eth[0].mac rxPkOk:vector(packetBytes) ETV
attr interpolationmode none
attr source rxPkOk
attr title "packets received OK, vector(packetBytes)"
vector 176 TestScenario8.switchA.eth[0].mac passedUpPk:vector(packetBytes) ETV
attr interpolationmode none
attr source packetSentToUpper
attr title "packets passed to higher layer, vector(packetBytes)"
vector 177 TestScenario8.switchA.eth[0].etherEncapE decapPk:vector(packetBytes) ETV
attr interpolationmode none
attr source decapPk
attr title "packets decapsulated, vector(packetBytes)"
vector 178 TestScenario8.switchA.eth[0].vlanEncapE decapPk:vector(packetBytes) ETV
attr interpolationmode none
attr source decapPk
attr title "packets decapsulated, vector(packetBytes)"
vector 179 TestScenario8.switchA.processingDelay[0] packetReceived:vector(packetBytes) ETV
attr interpolationmode none
attr source packetReceived
attr title "packets received, vector(packetBytes)"
vector 180 TestScenario8.switchA.processingDelay[0] delay:vector ETV
attr interpolationmode none
attr source delay
attr title "packet delay, vector"
vector 181 TestScenario8.switchA.processingDelay[0] packetSent:vector(packetBytes) ETV
attr interpolationmode none
attr source packetSent
attr title "packets sent, vector(packetBytes)"
vector 182 TestScenario8.switchA.eth[1].queuing.queues[7] rcvdPk:vector(packetBytes) ETV
attr interpolationmode none
attr title "received packets, vector(packetBytes)"
vector 183 TestScenario8.switchA.eth[2].queuing.queues[7] rcvdPk:vector(packetBytes) ETV
attr interpolationmode none
attr title "received packets, vector(packetBytes)"
vector 184 TestScenario8.switchA.eth[1].queuing.queues[7] queueingTime:vector ETV
attr interpolationmode none
attr title "queueing time, vector"
vector 185 TestScenario8.switchA.eth[1].vlanEncapE encapPk:vector(packetBytes) ETV
attr interpolationmode none
attr source encapPk
attr title "packets encapsulated, vector(packetBytes)"
vector 186 TestScenario8.switchA.eth[1].etherEncapE encapPk:vector(packetBytes) ETV
attr interpolationmode none
attr source encapPk
attr title "packets encapsulated, vector(packetBytes)"
vector 187 TestScenario8.switchA.eth[1].mac packetReceivedFromUpper:vector(packetBytes) ETV
attr interpolationmode none
attr source packetReceivedFromUpper
attr title "packet bytes from higher layer, vector(packetBytes)"
vector 188 TestScenario8.switchA.eth[1].mac eMacDelay:vector ETV
attr interpolationmode none
attr title "eMacDelay, vector"
vector 189 TestScenario8.switchA.eth[2].queuing.queues[7] queueingTime:vector ETV
attr interpolationmode none
attr title "queueing time, vector"
vector 190 TestScenario8.switchA.eth[2].vlanEncapE encapPk:vector(packetBytes) ETV
attr interpolationmode none
attr source encapPk
attr title "packets encapsulated, vector(packetBytes)"
vector 191 TestScenario8.switchA.eth[2].etherEncapE encapPk:vector(packetBytes) ETV
attr interpolationmode none
attr source encapPk
attr title "packets encapsulated, vector(packetBytes)"
vector 192 TestScenario8.switchA.eth[2].mac packetReceivedFromUpper:vector(packetBytes) ETV
attr interpolationmode none
attr source packetReceivedFromUpper
attr title "packet bytes from higher layer, vector(packetBytes)"
vector 193 TestScenario8.switchA.eth[2].mac eMacDelay:vector ETV
attr interpolationmode none
attr title "eMacDelay, vector"
vector 194 TestScenario8.switchA.eth[1].mac txPk:vector(packetBytes) ETV
attr interpolationmode none
attr source packetSentToLower
attr title "packets transmitted, vector(packetBytes)"
vector 195 TestScenario8.switchA.eth[2].mac txPk:vector(packetBytes) ETV
attr interpolationmode none
attr source packetSentToLower
attr title "packets transmitted, vector(packetBytes)"
vector 196 TestScenario8.switchB.eth[0].mac receivedExpressFrame:vector(packetBytes) ETV
attr interpolationmode none
attr title "receivedExpressFrame, vector(packetBytes)"
vector 197 TestScenario8.switchB.eth[0].mac rxPkOk:vector(packetBytes) ETV
attr interpolationmode none
attr source rxPkOk
attr title "packets received OK, vector(packetBytes)"
vector 198 TestScenario8.switchB.eth[0].mac passedUpPk:vector(packetBytes) ETV
attr interpolationmode none
attr source packetSentToUpper
attr title "packets passed to higher layer, vector(packetBytes)"
vector 199 TestScenario8.switchC.eth[0].mac receivedExpressFrame:vector(packetBytes) ETV
attr interpolationmode none
attr title "receivedExpressFrame, vector(packetBytes)"
vector 200 TestScenario8.switchC.eth[0].mac rxPkOk:vector(packetBytes) ETV
attr interpolationmode none
attr source rxPkOk
attr title "packets received OK, vector(packetBytes)"
vector 201 TestScenario8.switchC.eth[0].mac passedUpPk:vector(packetBytes) ETV
attr interpolationmode none
attr source packetSentToUpper
attr title "packets passed to higher layer, vector(packetBytes)"
vector 202 TestScenario8.switchB.eth[0].etherEncapE decapPk:vector(packetBytes) ETV
attr interpolationmode none
attr source decapPk
attr title "packets decapsulated, vector(packetBytes)"
vector 203 TestScenario8.switchC.eth[0].etherEncapE decapPk:vector(packetBytes) ETV
attr interpolationmode none
attr source decapPk
attr title "packets decapsulated, vector(packetBytes)"
vector 204 TestScenario8.switchB.eth[0].vlanEncapE decapPk:vector(packetBytes) ETV
attr interpolationmode none
attr source decapPk
attr title "packets decapsulated, vector(packetBytes)"
vector 205 TestScenario8.switchC.eth[0].vlanEncapE decapPk:vector(packetBytes) ETV
attr interpolationmode none
attr source decapPk
attr title "packets decapsulated, vector(packetBytes)"
vector 206 TestScenario8.switchB.processingDelay[0] packetReceived:vector(packetBytes) ETV
attr interpolationmode none
attr source packetReceived
attr title "packets received, vector(packetBytes)"
vector 207 TestScenario8.switchB.processingDelay[0] delay:vector ETV
attr interpolationmode none
attr source delay
attr title "packet delay, vector"
vector 208 TestScenario8.switchC.processingDelay[0] packetReceived:vector(packetBytes) ETV
attr interpolationmode none
attr source packetReceived
attr title "packets received, vector(packetBytes)"
vector 209 TestScenario8.switchC.processingDelay[0] delay:vector ETV
attr interpolationmode none
attr source delay
attr title "packet delay, vector"
vector 210 TestScenario8.switchB.processingDelay[0] packetSent:vector(packetBytes) ETV
attr interpolationmode none
attr source packetSent
attr title "packets sent, vector(packetBytes)"
vector 211 TestScenario8.switchC.processingDelay[0] packetSent:vector(packetBytes) ETV
attr interpolationmode none
attr source packetSent
attr title "packets sent, vector(packetBytes)"
vector 212 TestScenario8.switchB.eth[2].queuing.queues[7] rcvdPk:vector(packetBytes) ETV
attr interpolationmode none
attr title "received packets, vector(packetBytes)"
vector 213 TestScenario8.switchB.eth[3].queuing.queues[7] rcvdPk:vector(packetBytes) ETV
attr interpolationmode none
attr title "received packets, vector(packetBytes)"
vector 214 TestScenario8.switchC.eth[1].queuing.queues[7] rcvdPk:vector(packetBytes) ETV
attr interpolationmode none
attr title "received packets, vector(packetBytes)"
vector 215 TestScenario8.switchB.eth[2].queuing.queues[7] queueingTime:vector ETV
attr interpolationmode none
attr title "queueing time, vector"
vector 216 TestScenario8.switchB.eth[2].vlanEncapE encapPk:vector(packetBytes) ETV
attr interpolationmode none
attr source encapPk
attr title "packets encapsulated, vector(packetBytes)"
vector 217 TestScenario8.switchB.eth[2].etherEncapE encapPk:vector(packetBytes) ETV
attr interpolationmode none
attr source encapPk
attr title "packets encapsulated, vector(packetBytes)"
vector 218 TestScenario8.switchB.eth[2].mac packetReceivedFromUpper:vector(packetBytes) ETV
attr interpolationmode none
attr source packetReceivedFromUpper
attr title "packet bytes from higher layer, vector(packetBytes)"
vector 219 TestScenario8.switchB.eth[2].mac eMacDelay:vector ETV
attr interpolationmode none
attr title "eMacDelay, vector"
vector 220 TestScenario8.switchB.eth[3].queuing.queues[7] queueingTime:vector ETV
attr interpolationmode none
attr title "queueing time, vector"
vector 221 TestScenario8.switchB.eth[3].vlanEncapE encapPk:vector(packetBytes) ETV
attr interpolationmode none
attr source encapPk
attr title "packets encapsulated, vector(packetBytes)"
vector 222 TestScenario8.switchB.eth[3].etherEncapE encapPk:vector(packetBytes) ETV
attr interpolationmode none
attr source encapPk
attr title "packets encapsulated, vector(packetBytes)"
vector 223 TestScenario8.switchB.eth[3].mac packetReceivedFromUpper:vector(packetBytes) ETV
attr interpolationmode none
attr source packetReceivedFromUpper
attr title "packet bytes from higher layer, vector(packetBytes)"
vector 224 TestScenario8.switchB.eth[3].mac eMacDelay:vector ETV
attr interpolationmode none
attr title "eMacDelay, vector"
vector 225 TestScenario8.switchC.eth[1].queuing.queues[7] queueingTime:vector ETV
attr interpolationmode none
attr title "queueing time, vector"
vector 226 TestScenario8.switchC.eth[1].vlanEncapE encapPk:vector(packetBytes) ETV
attr interpolationmode none
attr source encapPk
attr title "packets encapsulated, vector(packetBytes)"
vector 227 TestScenario8.switchC.eth[1].etherEncapE encapPk:vector(packetBytes) ETV
attr interpolationmode none
attr source encapPk
attr title "packets encapsulated, vector(packetBytes)"
vector 228 TestScenario8.switchC.eth[1].mac packetReceivedFromUpper:vector(packetBytes) ETV
attr interpolationmode none
attr source packetReceivedFromUpper
attr title "packet bytes from higher layer, vector(packetBytes)"
vector 229 TestScenario8.switchC.eth[1].mac eMacDelay:vector ETV
attr interpolationmode none
attr title "eMacDelay, vector"
vector 230 TestScenario8.switchB.eth[2].mac txPk:vector(packetBytes) ETV
attr interpolationmode none
attr source packetSentToLower
attr title "packets transmitted, vector(packetBytes)"
vector 231 TestScenario8.switchB.eth[3].mac txPk:vector(packetBytes) ETV
attr interpolationmode none
attr source packetSentToLower
attr title "packets transmitted, vector(packetBytes)"
vector 232 TestScenario8.switchC.eth[1].mac txPk:vector(packetBytes) ETV
attr interpolationmode none
attr source packetSentToLower
attr title "packets transmitted, vector(packetBytes)"
vector 233 TestScenario8.roboticArm1.eth.mac receivedExpressFrame:vector(packetBytes) ETV
attr interpolationmode none
attr title "receivedExpressFrame, vector(packetBytes)"
vector 234 TestScenario8.roboticArm1.eth.mac rxPkOk:vector(packetBytes) ETV
attr interpolationmode none
attr source rxPkOk
attr title "packets received OK, vector(packetBytes)"
vector 235 TestScenario8.roboticArm1.eth.mac passedUpPk:vector(packetBytes) ETV
attr interpolationmode none
attr source packetSentToUpper
attr title "packets passed to higher layer, vector(packetBytes)"
vector 236 TestScenario8.roboticArm2.eth.mac receivedExpressFrame:vector(packetBytes) ETV
attr interpolationmode none
attr title "receivedExpressFrame, vector(packetBytes)"
vector 237 TestScenario8.roboticArm2.eth.mac rxPkOk:vector(packetBytes) ETV
attr interpolationmode none
attr source rxPkOk
attr title "packets received OK, vector(packetBytes)"
vector 238 TestScenario8.roboticArm2.eth.mac passedUpPk:vector(packetBytes) ETV
attr interpolationmode none
attr source packetSentToUpper
attr title "packets passed to higher layer, vector(packetBytes)"
vector 239 TestScenario8.switchB.eth[1].mac receivedExpressFrame:vector(packetBytes) ETV
attr interpolationmode none
attr title "receivedExpressFrame, vector(packetBytes)"
vector 240 TestScenario8.switchB.eth[1].mac rxPkOk:vector(packetBytes) ETV
attr interpolationmode none
attr source rxPkOk
attr title "packets received OK, vector(packetBytes)"
vector 241 TestScenario8.switchB.eth[1].mac passedUpPk:vector(packetBytes) ETV
attr interpolationmode none
attr source packetSentToUpper
attr title "packets passed to higher layer, vector(packetBytes)"
vector 242 TestScenario8.roboticArm1.eth.etherEncapE decapPk:vector(packetBytes) ETV
attr interpolationmode none
attr source decapPk
attr title "packets decapsulated, vector(packetBytes)"
vector 243 TestScenario8.roboticArm2.eth.etherEncapE decapPk:vector(packetBytes) ETV
attr interpolationmode none
attr source decapPk
attr title "packets decapsulated, vector(packetBytes)"
vector 244 TestScenario8.switchB.eth[1].etherEncapE decapPk:vector(packetBytes) ETV
attr interpolationmode none
attr source decapPk
attr title "packets decapsulated, vector(packetBytes)"
vector 245 TestScenario8.roboticArm1.eth.vlanEncapE decapPk:vector(packetBytes) ETV
attr interpolationmode none
attr source decapPk
attr title "packets decapsulated, vector(packetBytes)"
vector 246 TestScenario8.roboticArm2.eth.vlanEncapE decapPk:vector(packetBytes) ETV
attr interpolationmode none
attr source decapPk
attr title "packets decapsulated, vector(packetBytes)"
vector 247 TestScenario8.switchB.eth[1].vlanEncapE decapPk:vector(packetBytes) ETV
attr interpolationmode none
attr source decapPk
attr title "packets decapsulated, vector(packetBytes)"
vector 248 TestScenario8.roboticArm1.trafGenApp packetReceived:vector(packetBytes) ETV
attr interpolationmode none
attr source packetReceived
attr title "packets received, vector(packetBytes)"
vector 249 TestScenario8.roboticArm1.trafGenApp endToEndDelay:vector ETV
attr interpolationmode none
attr source dataAge(packetReceived)
attr title "end-to-end delay, vector"
attr unit s
vector 250 TestScenario8.roboticArm2.trafGenApp packetReceived:vector(packetBytes) ETV
attr interpolationmode none
attr source packetReceived
attr title "packets received, vector(packetBytes)"
vector 251 TestScenario8.roboticArm2.trafGenApp endToEndDelay:vector ETV
attr interpolationmode none
attr source dataAge(packetReceived)
attr title "end-to-end delay, vector"
attr unit s
vector 252 TestScenario8.switchB.processingDelay[1] packetReceived:vector(packetBytes) ETV
attr interpolationmode none
attr source packetReceived
attr title "packets received, vector(packetBytes)"
vector 253 TestScenario8.switchB.processingDelay[1] delay:vector ETV
attr interpolationmode none
attr source delay
attr title "packet delay, vector"
vector 254 TestScenario8.switchB.processingDelay[1] packetSent:vector(packetBytes) ETV
attr interpolationmode none
attr source packetSent
attr title "packets sent, vector(packetBytes)"
vector 255 TestScenario8.robotController1.flow[1].vlanEncap encapPk:vector(packetBytes) ETV
attr interpolationmode none
attr source encapPk
attr title "packets encapsulated, vector(packetBytes)"
vector 256 TestScenario8.robotController2.flow[0].vlanEncap encapPk:vector(packetBytes) ETV
attr interpolationmode none
attr source encapPk
attr title "packets encapsulated, vector(packetBytes)"
vector 257 TestScenario8.robotController1.flow[1].eth.encap encapPk:vector(packetBytes) ETV
attr interpolationmode none
attr source encapPk
attr title "packets encapsulated, vector(packetBytes)"
vector 258 TestScenario8.robotController2.flow[0].eth.encap encapPk:vector(packetBytes) ETV
attr interpolationmode none
attr source encapPk
attr title "packets encapsulated, vector(packetBytes)"
vector 259 TestScenario8.robotController1.flow[1].eth.mac packetReceivedFromUpper:vector(packetBytes) ETV
attr interpolationmode none
attr source packetReceivedFromUpper
attr title "packet bytes from higher layer, vector(packetBytes)"
vector 260 TestScenario8.robotController2.flow[0].eth.mac packetReceivedFromUpper:vector(packetBytes) ETV
attr interpolationmode none
attr source packetReceivedFromUpper
attr title "packet bytes from higher layer, vector(packetBytes)"
vector 261 TestScenario8.robotController1.toHost[1].mac rxPkOk:vector(packetBytes) ETV
attr interpolationmode none
attr source rxPkOk
attr title "packets received OK, vector(packetBytes)"
vector 262 TestScenario8.robotController1.toHost[1].mac passedUpPk:vector(packetBytes) ETV
attr interpolationmode none
attr source packetSentToUpper
attr title "packets passed to higher layer, vector(packetBytes)"
vector 263 TestScenario8.robotController1.flow[1].eth.mac txPk:vector(packetBytes) ETV
attr interpolationmode none
attr source packetSentToLower
attr title "packets transmitted, vector(packetBytes)"
vector 264 TestScenario8.robotController2.toHost[0].mac rxPkOk:vector(packetBytes) ETV
attr interpolationmode none
attr source rxPkOk
attr title "packets received OK, vector(packetBytes)"
vector 265 TestScenario8.robotController2.toHost[0].mac passedUpPk:vector(packetBytes) ETV
attr interpolationmode none
attr source packetSentToUpper
attr title "packets passed to higher layer, vector(packetBytes)"
vector 266 TestScenario8.robotController2.flow[0].eth.mac txPk:vector(packetBytes) ETV
attr interpolationmode none
attr source packetSentToLower
attr title "packets transmitted, vector(packetBytes)"
vector 267 TestScenario8.robotController2.toChannel.mac packetReceivedFromUpper:vector(packetBytes) ETV
attr interpolationmode none
attr source packetReceivedFromUpper
attr title "packet bytes from higher layer, vector(packetBytes)"
vector 268 TestScenario8.robotController2.toChannel.mac txPk:vector(packetBytes) ETV
attr interpolationmode none
attr source packetSentToLower
attr title "packets transmitted, vector(packetBytes)"
vector 269 TestScenario8.switchC.eth[2].mac receivedExpressFrame:vector(packetBytes) ETV
attr interpolationmode none
attr title "receivedExpressFrame, vector(packetBytes)"
vector 270 TestScenario8.switchC.eth[2].mac rxPkOk:vector(packetBytes) ETV
attr interpolationmode none
attr source rxPkOk
attr title "packets received OK, vector(packetBytes)"
vector 271 TestScenario8.switchC.eth[2].mac passedUpPk:vector(packetBytes) ETV
attr interpolationmode none
attr source packetSentToUpper
attr title "packets passed to higher layer, vector(packetBytes)"
vector 272 TestScenario8.switchC.eth[2].etherEncapE decapPk:vector(packetBytes) ETV
attr interpolationmode none
attr source decapPk
attr title "packets decapsulated, vector(packetBytes)"
vector 273 TestScenario8.switchC.eth[2].vlanEncapE decapPk:vector(packetBytes) ETV
attr interpolationmode none
attr source decapPk
attr title "packets decapsulated, vector(packetBytes)"
vector 274 TestScenario8.switchC.processingDelay[2] packetReceived:vector(packetBytes) ETV
attr interpolationmode none
attr source packetReceived
attr title "packets received, vector(packetBytes)"
vector 275 TestScenario8.switchC.processingDelay[2] delay:vector ETV
attr interpolationmode none
attr source delay
attr title "packet delay, vector"
vector 276 TestScenario8.switchC.processingDelay[2] packetSent:vector(packetBytes) ETV
attr interpolationmode none
attr source packetSent
attr title "packets sent, vector(packetBytes)"
vector 277 TestScenario8.switchC.eth[0].queuing.queues[7] rcvdPk:vector(packetBytes) ETV
attr interpolationmode none
attr title "received packets, vector(packetBytes)"
vector 278 TestScenario8.switchB.eth[0].queuing.tGates[7] gateStateChanged:vector ETV
attr interpolationmode none
attr title "gateStateChanged, vector"
vector 279 TestScenario8.switchB.eth[1].queuing.queues[7] rcvdPk:vector(packetBytes) ETV
attr interpolationmode none
attr title "received packets, vector(packetBytes)"
vector 280 TestScenario8.switchC.eth[2].queuing.queues[7] rcvdPk:vector(packetBytes) ETV
attr interpolationmode none
attr title "received packets, vector(packetBytes)"
vector 281 TestScenario8.switchB.eth[1].queuing.queues[7] queueingTime:vector ETV
attr interpolationmode none
attr title "queueing time, vector"
vector 282 TestScenario8.switchB.eth[1].vlanEncapE encapPk:vector(packetBytes) ETV
attr interpolationmode none
attr source encapPk
attr title "packets encapsulated, vector(packetBytes)"
vector 283 TestScenario8.switchB.eth[1].etherEncapE encapPk:vector(packetBytes) ETV
attr interpolationmode none
attr source encapPk
attr title "packets encapsulated, vector(packetBytes)"
vector 284 TestScenario8.switchB.eth[1].mac packetReceivedFromUpper:vector(packetBytes) ETV
attr interpolationmode none
attr source packetReceivedFromUpper
attr title "packet bytes from higher layer, vector(packetBytes)"
vector 285 TestScenario8.switchB.eth[1].mac eMacDelay:vector ETV
attr interpolationmode none
attr title "eMacDelay, vector"
vector 286 TestScenario8.switchC.eth[2].queuing.queues[7] queueingTime:vector ETV
attr interpolationmode none
attr title "queueing time, vector"
vector 287 TestScenario8.switchC.eth[2].vlanEncapE encapPk:vector(packetBytes) ETV
attr interpolationmode none
attr source encapPk
attr title "packets encapsulated, vector(packetBytes)"
vector 288 TestScenario8.switchC.eth[2].etherEncapE encapPk:vector(packetBytes) ETV
attr interpolationmode none
attr source encapPk
attr title "packets encapsulated, vector(packetBytes)"
vector 289 TestScenario8.switchC.eth[2].mac packetReceivedFromUpper:vector(packetBytes) ETV
attr interpolationmode none
attr source packetReceivedFromUpper
attr title "packet bytes from higher layer, vector(packetBytes)"
vector 290 TestScenario8.switchC.eth[2].mac eMacDelay:vector ETV
attr interpolationmode none
attr title "eMacDelay, vector"
vector 291 TestScenario8.switchB.eth[1].mac txPk:vector(packetBytes) ETV
attr interpolationmode none
attr source packetSentToLower
attr title "packets transmitted, vector(packetBytes)"
vector 292 TestScenario8.switchC.eth[2].mac txPk:vector(packetBytes) ETV
attr interpolationmode none
attr source packetSentToLower
attr title "packets transmitted, vector(packetBytes)"
vector 293 TestScenario8.switchC.eth[1].mac receivedExpressFrame:vector(packetBytes) ETV
attr interpolationmode none
attr title "receivedExpressFrame, vector(packetBytes)"
vector 294 TestScenario8.switchC.eth[1].mac rxPkOk:vector(packetBytes) ETV
attr interpolationmode none
attr source rxPkOk
attr title "packets received OK, vector(packetBytes)"
vector 295 TestScenario8.switchC.eth[1].mac passedUpPk:vector(packetBytes) ETV
attr interpolationmode none
attr source packetSentToUpper
attr title "packets passed to higher layer, vector(packetBytes)"
vector 296 TestScenario8.robotController2.toChannel.mac rxPkOk:vector(packetBytes) ETV
attr interpolationmode none
attr source rxPkOk
attr title "packets received OK, vector(packetBytes)"
vector 297 TestScenario8.robotController2.toChannel.mac passedUpPk:vector(packetBytes) ETV
attr interpolationmode none
attr source packetSentToUpper
attr title "packets passed to higher layer, vector(packetBytes)"
vector 298 TestScenario8.switchC.eth[1].etherEncapE decapPk:vector(packetBytes) ETV
attr interpolationmode none
attr source decapPk
attr title "packets decapsulated, vector(packetBytes)"
vector 299 TestScenario8.switchC.eth[1].vlanEncapE decapPk:vector(packetBytes) ETV
attr interpolationmode none
attr source decapPk
attr title "packets decapsulated, vector(packetBytes)"
vector 300 TestScenario8.switchC.processingDelay[1] packetReceived:vector(packetBytes) ETV
attr interpolationmode none
attr source packetReceived
attr title "packets received, vector(packetBytes)"
vector 301 TestScenario8.switchC.processingDelay[1] delay:vector ETV
attr interpolationmode none
attr source delay
attr title "packet delay, vector"
vector 302 TestScenario8.switchC.processingDelay[1] packetSent:vector(packetBytes) ETV
attr interpolationmode none
attr source packetSent
attr title "packets sent, vector(packetBytes)"
vector 303 TestScenario8.switchC.eth[0].queuing.queues[7] queueingTime:vector ETV
attr interpolationmode none
attr title "queueing time, vector"
vector 304 TestScenario8.switchC.eth[0].vlanEncapE encapPk:vector(packetBytes) ETV
attr interpolationmode none
attr source encapPk
attr title "packets encapsulated, vector(packetBytes)"
vector 305 TestScenario8.switchC.eth[0].etherEncapE encapPk:vector(packetBytes) ETV
attr interpolationmode none
attr source encapPk
attr title "packets encapsulated, vector(packetBytes)"
vector 306 TestScenario8.switchC.eth[0].mac packetReceivedFromUpper:vector(packetBytes) ETV
attr interpolationmode none
attr source packetReceivedFromUpper
attr title "packet bytes from higher layer, vector(packetBytes)"
vector 307 TestScenario8.switchC.eth[0].mac eMacDelay:vector ETV
attr interpolationmode none
attr title "eMacDelay, vector"
vector 308 TestScenario8.switchC.eth[0].mac txPk:vector(packetBytes) ETV
attr interpolationmode none
attr source packetSentToLower
attr title "packets transmitted, vector(packetBytes)"
vector 309 TestScenario8.switchA.eth[2].mac receivedExpressFrame:vector(packetBytes) ETV
attr interpolationmode none
attr title "receivedExpressFrame, vector(packetBytes)"
vector 310 TestScenario8.switchA.eth[2].mac rxPkOk:vector(packetBytes) ETV
attr interpolationmode none
attr source rxPkOk
attr title "packets received OK, vector(packetBytes)"
vector 311 TestScenario8.switchA.eth[2].mac passedUpPk:vector(packetBytes) ETV
attr interpolationmode none
attr source packetSentToUpper
attr title "packets passed to higher layer, vector(packetBytes)"
vector 312 TestScenario8.switchA.eth[2].etherEncapE decapPk:vector(packetBytes) ETV
attr interpolationmode none
attr source decapPk
attr title "packets decapsulated, vector(packetBytes)"
vector 313 TestScenario8.switchA.eth[2].vlanEncapE decapPk:vector(packetBytes) ETV
attr interpolationmode none
attr source decapPk
attr title "packets decapsulated, vector(packetBytes)"
vector 314 TestScenario8.switchA.processingDelay[2] packetReceived:vector(packetBytes) ETV
attr interpolationmode none
attr source packetReceived
attr title "packets received, vector(packetBytes)"
vector 315 TestScenario8.switchA.processingDelay[2] delay:vector ETV
attr interpolationmode none
attr source delay
attr title "packet delay, vector"
vector 316 TestScenario8.switchA.processingDelay[2] packetSent:vector(packetBytes) ETV
attr interpolationmode none
attr source packetSent
attr title "packets sent, vector(packetBytes)"
vector 317 TestScenario8.switchA.eth[0].queuing.queues[7] rcvdPk:vector(packetBytes) ETV
attr interpolationmode none
attr title "received packets, vector(packetBytes)"
vector 318 TestScenario8.switchA.eth[0].queuing.queues[7] queueingTime:vector ETV
attr interpolationmode none
attr title "queueing time, vector"
vector 319 TestScenario8.switchA.eth[0].vlanEncapE encapPk:vector(packetBytes) ETV
attr interpolationmode none
attr source encapPk
attr title "packets encapsulated, vector(packetBytes)"
vector 320 TestScenario8.switchA.eth[0].etherEncapE encapPk:vector(packetBytes) ETV
attr interpolationmode none
attr source encapPk
attr title "packets encapsulated, vector(packetBytes)"
vector 321 TestScenario8.switchA.eth[0].mac packetReceivedFromUpper:vector(packetBytes) ETV
attr interpolationmode none
attr source packetReceivedFromUpper
attr title "packet bytes from higher layer, vector(packetBytes)"
vector 322 TestScenario8.switchA.eth[0].mac eMacDelay:vector ETV
attr interpolationmode none
attr title "eMacDelay, vector"
vector 323 TestScenario8.switchA.eth[0].mac txPk:vector(packetBytes) ETV
attr interpolationmode none
attr source packetSentToLower
attr title "packets transmitted, vector(packetBytes)"
vector 324 TestScenario8.robotController1.toChannel.mac rxPkOk:vector(packetBytes) ETV
attr interpolationmode none
attr source rxPkOk
attr title "packets received OK, vector(packetBytes)"
vector 325 TestScenario8.robotController1.toChannel.mac passedUpPk:vector(packetBytes) ETV
attr interpolationmode none
attr source packetSentToUpper
attr title "packets passed to higher layer, vector(packetBytes)"
vector 326 TestScenario8.switchA.eth[0].queuing.tGates[7] gateStateChanged:vector ETV
attr interpolationmode none
attr title "gateStateChanged, vector"
vector 327 TestScenario8.switchA.eth[1].queuing.tGates[7] gateStateChanged:vector ETV
attr interpolationmode none
attr title "gateStateChanged, vector"
vector 328 TestScenario8.switchA.eth[2].queuing.tGates[7] gateStateChanged:vector ETV
attr interpolationmode none
attr title "gateStateChanged, vector"
vector 329 TestScenario8.switchB.eth[1].queuing.tGates[7] gateStateChanged:vector ETV
attr interpolationmode none
attr title "gateStateChanged, vector"
vector 330 TestScenario8.switchB.eth[2].queuing.tGates[7] gateStateChanged:vector ETV
attr interpolationmode none
attr title "gateStateChanged, vector"
vector 331 TestScenario8.switchB.eth[3].queuing.tGates[7] gateStateChanged:vector ETV
attr interpolationmode none
attr title "gateStateChanged, vector"
vector 332 TestScenario8.switchC.eth[0].queuing.tGates[7] gateStateChanged:vector ETV
attr interpolationmode none
attr title "gateStateChanged, vector"
vector 333 TestScenario8.switchC.eth[1].queuing.tGates[7] gateStateChanged:vector ETV
attr interpolationmode none
attr title "gateStateChanged, vector"
vector 334 TestScenario8.switchC.eth[2].queuing.tGates[7] gateStateChanged:vector ETV
attr interpolationmode none
attr title "gateStateChanged, vector"
0	0	0	0
1	0	0	0
2	0	0	0
3	0	0	0
4	0	0	0
5	0	0	0
6	0	0	0
7	0	0	0
7	763	0.000206188	1
7	769	0.000206188	0
7	1743	0.000606188	1
7	1749	0.000606188	0
7	2723	0.001006188	1
7	2729	0.001006188	0
7	3703	0.001406188	1
7	3709	0.001406188	0
7	4683	0.001806188	1
7	4689	0.001806188	0
7	5663	0.002206188	1
7	5669	0.002206188	0
7	6643	0.002606188	1
7	6649	0.002606188	0
7	7623	0.003006188	1
7	7629	0.003006188	0
7	8603	0.003406188	1
7	8609	0.003406188	0
7	9583	0.003806188	1
7	9589	0.003806188	0
7	10563	0.004206188	1
7	10569	0.004206188	0
7	11543	0.004606188	1
7	11549	0.004606188	0
7	12523	0.005006188	1
7	12529	0.005006188	0
7	13503	0.005406188	1
7	13509	0.005406188	0
7	14483	0.005806188	1
7	14489	0.005806188	0
7	15463	0.006206188	1
7	15469	0.006206188	0
7	16443	0.006606188	1
7	16449	0.006606188	0
7	17423	0.007006188	1
7	17429	0.007006188	0
7	18403	0.007406188	1
7	18409	0.007406188	0
7	19383	0.007806188	1
7	19389	0.007806188	0
8	0	0	0
9	0	0	0
10	0	0	0
11	0	0	0
12	0	0	0
13	0	0	0
14	0	0	0
15	0	0	0
15	218	0.00000619888	1
15	227	0.00000619888	0
15	415	0.00005579488	1
15	543	0.0001	0
15	1198	0.00040619888	1
15	1207	0.00040619888	0
15	1395	0.00045579488	1
15	1523	0.0005	0
15	2178	0.00080619888	1
15	2187	0.00080619888	0
15	2375	0.00085579488	1
15	2503	0.0009	0
15	3158	0.00120619888	1
15	3167	0.00120619888	0
15	3355	0.00125579488	1
15	3483	0.0013	0
15	4138	0.00160619888	1
15	4147	0.00160619888	0
15	4335	0.00165579488	1
15	4463	0.0017	0
15	5118	0.00200619888	1
15	5127	0.00200619888	0
15	5315	0.00205579488	1
15	5443	0.0021	0
15	6098	0.00240619888	1
15	6107	0.00240619888	0
15	6295	0.00245579488	1
15	6423	0.0025	0
15	7078	0.00280619888	1
15	7087	0.00280619888	0
15	7275	0.00285579488	1
15	7403	0.0029	0
15	8058	0.00320619888	1
15	8067	0.00320619888	0
15	8255	0.00325579488	1
15	8383	0.0033	0
15	9038	0.00360619888	1
15	9047	0.00360619888	0
15	9235	0.00365579488	1
15	9363	0.0037	0
15	10018	0.00400619888	1
15	10027	0.00400619888	0
15	10215	0.00405579488	1
15	10343	0.0041	0
15	10998	0.00440619888	1
15	11007	0.00440619888	0
15	11195	0.00445579488	1
15	11323	0.0045	0
15	11978	0.00480619888	1
15	11987	0.00480619888	0
15	12175	0.00485579488	1
15	12303	0.0049	0
15	12958	0.00520619888	1
15	12967	0.00520619888	0
15	13155	0.00525579488	1
15	13283	0.0053	0
15	13938	0.00560619888	1
15	13947	0.00560619888	0
15	14135	0.00565579488	1
15	14263	0.0057	0
15	14918	0.00600619888	1
15	14927	0.00600619888	0
15	15115	0.00605579488	1
15	15243	0.0061	0
15	15898	0.00640619888	1
15	15907	0.00640619888	0
15	16095	0.00645579488	1
15	16223	0.0065	0
15	16878	0.00680619888	1
15	16887	0.00680619888	0
15	17075	0.00685579488	1
15	17203	0.0069	0
15	17858	0.00720619888	1
15	17867	0.00720619888	0
15	18055	0.00725579488	1
15	18183	0.0073	0
15	18838	0.00760619888	1
15	18847	0.00760619888	0
15	19035	0.00765579488	1
15	19163	0.0077	0
15	19818	0.00800619888	1
15	19827	0.00800619888	0
16	0	0	0
17	0	0	0
18	0	0	0
19	0	0	0
20	0	0	0
21	0	0	0
22	0	0	0
23	0	0	0
23	219	0.00000619888	1
23	237	0.00000619888	0
23	416	0.00005579488	1
23	553	0.0001	0
23	1199	0.00040619888	1
23	1217	0.00040619888	0
23	1396	0.00045579488	1
23	1533	0.0005	0
23	2179	0.00080619888	1
23	2197	0.00080619888	0
23	2376	0.00085579488	1
23	2513	0.0009	0
23	3159	0.00120619888	1
23	3177	0.00120619888	0
23	3356	0.00125579488	1
23	3493	0.0013	0
23	4139	0.00160619888	1
23	4157	0.00160619888	0
23	4336	0.00165579488	1
23	4473	0.0017	0
23	5119	0.00200619888	1
23	5137	0.00200619888	0
23	5316	0.00205579488	1
23	5453	0.0021	0
23	6099	0.00240619888	1
23	6117	0.00240619888	0
23	6296	0.00245579488	1
23	6433	0.0025	0
23	7079	0.00280619888	1
23	7097	0.00280619888	0
23	7276	0.00285579488	1
23	7413	0.0029	0
23	8059	0.00320619888	1
23	8077	0.00320619888	0
23	8256	0.00325579488	1
23	8393	0.0033	0
23	9039	0.00360619888	1
23	9057	0.00360619888	0
23	9236	0.00365579488	1
23	9373	0.0037	0
23	10019	0.00400619888	1
23	10037	0.00400619888	0
23	10216	0.00405579488	1
23	10353	0.0041	0
23	10999	0.00440619888	1
23	11017	0.00440619888	0
23	11196	0.00445579488	1
23	11333	0.0045	0
23	11979	0.00480619888	1
23	11997	0.00480619888	0
23	12176	0.00485579488	1
23	12313	0.0049	0
23	12959	0.00520619888	1
23	12977	0.00520619888	0
23	13156	0.00525579488	1
23	13293	0.0053	0
23	13939	0.00560619888	1
23	13957	0.00560619888	0
23	14136	0.00565579488	1
23	14273	0.0057	0
23	14919	0.00600619888	1
23	14937	0.00600619888	0
23	15116	0.00605579488	1
23	15253	0.0061	0
23	15899	0.00640619888	1
23	15917	0.00640619888	0
23	16096	0.00645579488	1
23	16233	0.0065	0
23	16879	0.00680619888	1
23	16897	0.00680619888	0
23	17076	0.00685579488	1
23	17213	0.0069	0
23	17859	0.00720619888	1
23	17877	0.00720619888	0
23	18056	0.00725579488	1
23	18193	0.0073	0
23	18839	0.00760619888	1
23	18857	0.00760619888	0
23	19036	0.00765579488	1
23	19173	0.0077	0
23	19819	0.00800619888	1
24	0	0	0
25	0	0	0
26	0	0	0
27	0	0	0
28	0	0	0
29	0	0	0
30	0	0	0
31	0	0	0
32	0	0	0
33	0	0	0
34	0	0	0
35	0	0	0
36	0	0	0
37	0	0	0
38	0	0	0
39	0	0	0
39	596	0.000105788	1
39	605	0.000105788	0
39	1576	0.000505788	1
39	1585	0.000505788	0
39	2556	0.000905788	1
39	2565	0.000905788	0
39	3536	0.001305788	1
39	3545	0.001305788	0
39	4516	0.001705788	1
39	4525	0.001705788	0
39	5496	0.002105788	1
39	5505	0.002105788	0
39	6476	0.002505788	1
39	6485	0.002505788	0
39	7456	0.002905788	1
39	7465	0.002905788	0
39	8436	0.003305788	1
39	8445	0.003305788	0
39	9416	0.003705788	1
39	9425	0.003705788	0
39	10396	0.004105788	1
39	10405	0.004105788	0
39	11376	0.004505788	1
39	11385	0.004505788	0
39	12356	0.004905788	1
39	12365	0.004905788	0
39	13336	0.005305788	1
39	13345	0.005305788	0
39	14316	0.005705788	1
39	14325	0.005705788	0
39	15296	0.006105788	1
39	15305	0.006105788	0
39	16276	0.006505788	1
39	16285	0.006505788	0
39	17256	0.006905788	1
39	17265	0.006905788	0
39	18236	0.007305788	1
39	18245	0.007305788	0
39	19216	0.007705788	1
39	19225	0.007705788	0
40	0	0	0
41	0	0	0
42	0	0	0
43	0	0	0
44	0	0	0
45	0	0	0
46	0	0	0
47	0	0	0
47	285	0.00001238688	1
47	297	0.00001238688	0
47	1265	0.00041238688	1
47	1277	0.00041238688	0
47	2245	0.00081238688	1
47	2257	0.00081238688	0
47	3225	0.00121238688	1
47	3237	0.00121238688	0
47	4205	0.00161238688	1
47	4217	0.00161238688	0
47	5185	0.00201238688	1
47	5197	0.00201238688	0
47	6165	0.00241238688	1
47	6177	0.00241238688	0
47	7145	0.00281238688	1
47	7157	0.00281238688	0
47	8125	0.00321238688	1
47	8137	0.00321238688	0
47	9105	0.00361238688	1
47	9117	0.00361238688	0
47	10085	0.00401238688	1
47	10097	0.00401238688	0
47	11065	0.00441238688	1
47	11077	0.00441238688	0
47	12045	0.00481238688	1
47	12057	0.00481238688	0
47	13025	0.00521238688	1
47	13037	0.00521238688	0
47	14005	0.00561238688	1
47	14017	0.00561238688	0
47	14985	0.00601238688	1
47	14997	0.00601238688	0
47	15965	0.00641238688	1
47	15977	0.00641238688	0
47	16945	0.00681238688	1
47	16957	0.00681238688	0
47	17925	0.00721238688	1
47	17937	0.00721238688	0
47	18905	0.00761238688	1
47	18917	0.00761238688	0
48	0	0	0
49	0	0	0
50	0	0	0
51	0	0	0
52	0	0	0
53	0	0	0
54	0	0	0
55	0	0	0
55	286	0.00001238688	1
55	307	0.00001238688	0
55	1266	0.00041238688	1
55	1287	0.00041238688	0
55	2246	0.00081238688	1
55	2267	0.00081238688	0
55	3226	0.00121238688	1
55	3247	0.00121238688	0
55	4206	0.00161238688	1
55	4227	0.00161238688	0
55	5186	0.00201238688	1
55	5207	0.00201238688	0
55	6166	0.00241238688	1
55	6187	0.00241238688	0
55	7146	0.00281238688	1
55	7167	0.00281238688	0
55	8126	0.00321238688	1
55	8147	0.00321238688	0
55	9106	0.00361238688	1
55	9127	0.00361238688	0
55	10086	0.00401238688	1
55	10107	0.00401238688	0
55	11066	0.00441238688	1
55	11087	0.00441238688	0
55	12046	0.00481238688	1
55	12067	0.00481238688	0
55	13026	0.00521238688	1
55	13047	0.00521238688	0
55	14006	0.00561238688	1
55	14027	0.00561238688	0
55	14986	0.00601238688	1
55	15007	0.00601238688	0
55	15966	0.00641238688	1
55	15987	0.00641238688	0
55	16946	0.00681238688	1
55	16967	0.00681238688	0
55	17926	0.00721238688	1
55	17947	0.00721238688	0
55	18906	0.00761238688	1
55	18927	0.00761238688	0
56	0	0	0
57	0	0	0
58	0	0	0
59	0	0	0
60	0	0	0
61	0	0	0
62	0	0	0
63	0	0	0
63	426	0.00005619888	1
63	738	0.0002	0
63	1406	0.00045619888	1
63	1718	0.0006	0
63	2386	0.00085619888	1
63	2698	0.001	0
63	3366	0.00125619888	1
63	3678	0.0014	0
63	4346	0.00165619888	1
63	4658	0.0018	0
63	5326	0.00205619888	1
63	5638	0.0022	0
63	6306	0.00245619888	1
63	6618	0.0026	0
63	7286	0.00285619888	1
63	7598	0.003	0
63	8266	0.00325619888	1
63	8578	0.0034	0
63	9246	0.00365619888	1
63	9558	0.0038	0
63	10226	0.00405619888	1
63	10538	0.0042	0
63	11206	0.00445619888	1
63	11518	0.0046	0
63	12186	0.00485619888	1
63	12498	0.005	0
63	13166	0.00525619888	1
63	13478	0.0054	0
63	14146	0.00565619888	1
63	14458	0.0058	0
63	15126	0.00605619888	1
63	15438	0.0062	0
63	16106	0.00645619888	1
63	16418	0.0066	0
63	17086	0.00685619888	1
63	17398	0.007	0
63	18066	0.00725619888	1
63	18378	0.0074	0
63	19046	0.00765619888	1
63	19358	0.0078	0
64	0	0	0
65	0	0	0
66	0	0	0
67	0	0	0
68	0	0	0
69	0	0	0
70	0	0	0
71	0	0	0
71	287	0.00001238688	1
71	317	0.00001238688	0
71	1267	0.00041238688	1
71	1297	0.00041238688	0
71	2247	0.00081238688	1
71	2277	0.00081238688	0
71	3227	0.00121238688	1
71	3257	0.00121238688	0
71	4207	0.00161238688	1
71	4237	0.00161238688	0
71	5187	0.00201238688	1
71	5217	0.00201238688	0
71	6167	0.00241238688	1
71	6197	0.00241238688	0
71	7147	0.00281238688	1
71	7177	0.00281238688	0
71	8127	0.00321238688	1
71	8157	0.00321238688	0
71	9107	0.00361238688	1
71	9137	0.00361238688	0
71	10087	0.00401238688	1
71	10117	0.00401238688	0
71	11067	0.00441238688	1
71	11097	0.00441238688	0
71	12047	0.00481238688	1
71	12077	0.00481238688	0
71	13027	0.00521238688	1
71	13057	0.00521238688	0
71	14007	0.00561238688	1
71	14037	0.00561238688	0
71	14987	0.00601238688	1
71	15017	0.00601238688	0
71	15967	0.00641238688	1
71	15997	0.00641238688	0
71	16947	0.00681238688	1
71	16977	0.00681238688	0
71	17927	0.00721238688	1
71	17957	0.00721238688	0
71	18907	0.00761238688	1
71	18937	0.00761238688	0
72	0	0	0
73	0	0	0
74	0	0	0
75	0	0	0
76	0	0	0
77	0	0	0
78	0	0	0
79	0	0	0
79	597	0.000105788	1
79	615	0.000105788	0
79	1577	0.000505788	1
79	1595	0.000505788	0
79	2557	0.000905788	1
79	2575	0.000905788	0
79	3537	0.001305788	1
79	3555	0.001305788	0
79	4517	0.001705788	1
79	4535	0.001705788	0
79	5497	0.002105788	1
79	5515	0.002105788	0
79	6477	0.002505788	1
79	6495	0.002505788	0
79	7457	0.002905788	1
79	7475	0.002905788	0
79	8437	0.003305788	1
79	8455	0.003305788	0
79	9417	0.003705788	1
79	9435	0.003705788	0
79	10397	0.004105788	1
79	10415	0.004105788	0
79	11377	0.004505788	1
79	11395	0.004505788	0
79	12357	0.004905788	1
79	12375	0.004905788	0
79	13337	0.005305788	1
79	13355	0.005305788	0
79	14317	0.005705788	1
79	14335	0.005705788	0
79	15297	0.006105788	1
79	15315	0.006105788	0
79	16277	0.006505788	1
79	16295	0.006505788	0
79	17257	0.006905788	1
79	17275	0.006905788	0
79	18237	0.007305788	1
79	18255	0.007305788	0
79	19217	0.007705788	1
79	19235	0.007705788	0
80	0	0	0
81	0	0	0
82	0	0	0
83	0	0	0
84	0	0	0
85	0	0	0
86	0	0	0
87	0	0	0
88	0	0	0
89	0	0	0
90	0	0	0
91	0	0	0
92	0	0	0
93	0	0	0
94	0	0	0
95	0	0	0
96	9	0	0
96	784	0.0003	1
96	980	0.0004	0
96	1764	0.0007	1
96	1960	0.0008	0
96	2744	0.0011	1
96	2940	0.0012	0
96	3724	0.0015	1
96	3920	0.0016	0
96	4704	0.0019	1
96	4900	0.002	0
96	5684	0.0023	1
96	5880	0.0024	0
96	6664	0.0027	1
96	6860	0.0028	0
96	7644	0.0031	1
96	7840	0.0032	0
96	8624	0.0035	1
96	8820	0.0036	0
96	9604	0.0039	1
96	9800	0.004	0
96	10584	0.0043	1
96	10780	0.0044	0
96	11564	0.0047	1
96	11760	0.0048	0
96	12544	0.0051	1
96	12740	0.0052	0
96	13524	0.0055	1
96	13720	0.0056	0
96	14504	0.0059	1
96	14700	0.006	0
96	15484	0.0063	1
96	15680	0.0064	0
96	16464	0.0067	1
96	16660	0.0068	0
96	17444	0.0071	1
96	17640	0.0072	0
96	18424	0.0075	1
96	18620	0.0076	0
96	19404	0.0079	1
96	19600	0.008	0
97	11	0	0
97	786	0.0003	1
97	982	0.0004	0
97	1766	0.0007	1
97	1962	0.0008	0
97	2746	0.0011	1
97	2942	0.0012	0
97	3726	0.0015	1
97	3922	0.0016	0
97	4706	0.0019	1
97	4902	0.002	0
97	5686	0.0023	1
97	5882	0.0024	0
97	6666	0.0027	1
97	6862	0.0028	0
97	7646	0.0031	1
97	7842	0.0032	0
97	8626	0.0035	1
97	8822	0.0036	0
97	9606	0.0039	1
97	9802	0.004	0
97	10586	0.0043	1
97	10782	0.0044	0
97	11566	0.0047	1
97	11762	0.0048	0
97	12546	0.0051	1
97	12742	0.0052	0
97	13526	0.0055	1
97	13722	0.0056	0
97	14506	0.0059	1
97	14702	0.006	0
97	15486	0.0063	1
97	15682	0.0064	0
97	16466	0.0067	1
97	16662	0.0068	0
97	17446	0.0071	1
97	17642	0.0072	0
97	18426	0.0075	1
97	18622	0.0076	0
97	19406	0.0079	1
97	19602	0.008	0
98	13	0	0
98	788	0.0003	1
98	984	0.0004	0
98	1768	0.0007	1
98	1964	0.0008	0
98	2748	0.0011	1
98	2944	0.0012	0
98	3728	0.0015	1
98	3924	0.0016	0
98	4708	0.0019	1
98	4904	0.002	0
98	5688	0.0023	1
98	5884	0.0024	0
98	6668	0.0027	1
98	6864	0.0028	0
98	7648	0.0031	1
98	7844	0.0032	0
98	8628	0.0035	1
98	8824	0.0036	0
98	9608	0.0039	1
98	9804	0.004	0
98	10588	0.0043	1
98	10784	0.0044	0
98	11568	0.0047	1
98	11764	0.0048	0
98	12548	0.0051	1
98	12744	0.0052	0
98	13528	0.0055	1
98	13724	0.0056	0
98	14508	0.0059	1
98	14704	0.006	0
98	15488	0.0063	1
98	15684	0.0064	0
98	16468	0.0067	1
98	16664	0.0068	0
98	17448	0.0071	1
98	17644	0.0072	0
98	18428	0.0075	1
98	18624	0.0076	0
98	19408	0.0079	1
98	19604	0.008	0
99	15	0	0
99	790	0.0003	1
99	986	0.0004	0
99	1770	0.0007	1
99	1966	0.0008	0
99	2750	0.0011	1
99	2946	0.0012	0
99	3730	0.0015	1
99	3926	0.0016	0
99	4710	0.0019	1
99	4906	0.002	0
99	5690	0.0023	1
99	5886	0.0024	0
99	6670	0.0027	1
99	6866	0.0028	0
99	7650	0.0031	1
99	7846	0.0032	0
99	8630	0.0035	1
99	8826	0.0036	0
99	9610	0.0039	1
99	9806	0.004	0
99	10590	0.0043	1
99	10786	0.0044	0
99	11570	0.0047	1
99	11766	0.0048	0
99	12550	0.0051	1
99	12746	0.0052	0
99	13530	0.0055	1
99	13726	0.0056	0
99	14510	0.0059	1
99	14706	0.006	0
99	15490	0.0063	1
99	15686	0.0064	0
99	16470	0.0067	1
99	16666	0.0068	0
99	17450	0.0071	1
99	17646	0.0072	0
99	18430	0.0075	1
99	18626	0.0076	0
99	19410	0.0079	1
99	19606	0.008	0
100	17	0	0
100	792	0.0003	1
100	988	0.0004	0
100	1772	0.0007	1
100	1968	0.0008	0
100	2752	0.0011	1
100	2948	0.0012	0
100	3732	0.0015	1
100	3928	0.0016	0
100	4712	0.0019	1
100	4908	0.002	0
100	5692	0.0023	1
100	5888	0.0024	0
100	6672	0.0027	1
100	6868	0.0028	0
100	7652	0.0031	1
100	7848	0.0032	0
100	8632	0.0035	1
100	8828	0.0036	0
100	9612	0.0039	1
100	9808	0.004	0
100	10592	0.0043	1
100	10788	0.0044	0
100	11572	0.0047	1
100	11768	0.0048	0
100	12552	0.0051	1
100	12748	0.0052	0
100	13532	0.0055	1
100	13728	0.0056	0
100	14512	0.0059	1
100	14708	0.006	0
100	15492	0.0063	1
100	15688	0.0064	0
100	16472	0.0067	1
100	16668	0.0068	0
100	17452	0.0071	1
100	17648	0.0072	0
100	18432	0.0075	1
100	18628	0.0076	0
100	19412	0.0079	1
100	19608	0.008	0
101	19	0	0
101	794	0.0003	1
101	990	0.0004	0
101	1774	0.0007	1
101	1970	0.0008	0
101	2754	0.0011	1
101	2950	0.0012	0
101	3734	0.0015	1
101	3930	0.0016	0
101	4714	0.0019	1
101	4910	0.002	0
101	5694	0.0023	1
101	5890	0.0024	0
101	6674	0.0027	1
101	6870	0.0028	0
101	7654	0.0031	1
101	7850	0.0032	0
101	8634	0.0035	1
101	8830	0.0036	0
101	9614	0.0039	1
101	9810	0.004	0
101	10594	0.0043	1
101	10790	0.0044	0
101	11574	0.0047	1
101	11770	0.0048	0
101	12554	0.0051	1
101	12750	0.0052	0
101	13534	0.0055	1
101	13730	0.0056	0
101	14514	0.0059	1
101	14710	0.006	0
101	15494	0.0063	1
101	15690	0.0064	0
101	16474	0.0067	1
101	16670	0.0068	0
101	17454	0.0071	1
101	17650	0.0072	0
101	18434	0.0075	1
101	18630	0.0076	0
101	19414	0.0079	1
101	19610	0.008	0
102	21	0	0
102	796	0.0003	1
102	992	0.0004	0
102	1776	0.0007	1
102	1972	0.0008	0
102	2756	0.0011	1
102	2952	0.0012	0
102	3736	0.0015	1
102	3932	0.0016	0
102	4716	0.0019	1
102	4912	0.002	0
102	5696	0.0023	1
102	5892	0.0024	0
102	6676	0.0027	1
102	6872	0.0028	0
102	7656	0.0031	1
102	7852	0.0032	0
102	8636	0.0035	1
102	8832	0.0036	0
102	9616	0.0039	1
102	9812	0.004	0
102	10596	0.0043	1
102	10792	0.0044	0
102	11576	0.0047	1
102	11772	0.0048	0
102	12556	0.0051	1
102	12752	0.0052	0
102	13536	0.0055	1
102	13732	0.0056	0
102	14516	0.0059	1
102	14712	0.006	0
102	15496	0.0063	1
102	15692	0.0064	0
102	16476	0.0067	1
102	16672	0.0068	0
102	17456	0.0071	1
102	17652	0.0072	0
102	18436	0.0075	1
102	18632	0.0076	0
102	19416	0.0079	1
102	19612	0.008	0
103	24	0	0
103	800	0.0003	1
103	996	0.0004	0
103	1780	0.0007	1
103	1976	0.0008	0
103	2760	0.0011	1
103	2956	0.0012	0
103	3740	0.0015	1
103	3936	0.0016	0
103	4720	0.0019	1
103	4916	0.002	0
103	5700	0.0023	1
103	5896	0.0024	0
103	6680	0.0027	1
103	6876	0.0028	0
103	7660	0.0031	1
103	7856	0.0032	0
103	8640	0.0035	1
103	8836	0.0036	0
103	9620	0.0039	1
103	9816	0.004	0
103	10600	0.0043	1
103	10796	0.0044	0
103	11580	0.0047	1
103	11776	0.0048	0
103	12560	0.0051	1
103	12756	0.0052	0
103	13540	0.0055	1
103	13736	0.0056	0
103	14520	0.0059	1
103	14716	0.006	0
103	15500	0.0063	1
103	15696	0.0064	0
103	16480	0.0067	1
103	16676	0.0068	0
103	17460	0.0071	1
103	17656	0.0072	0
103	18440	0.0075	1
103	18636	0.0076	0
103	19420	0.0079	1
103	19616	0.008	0
104	26	0	0
104	802	0.0003	1
104	998	0.0004	0
104	1782	0.0007	1
104	1978	0.0008	0
104	2762	0.0011	1
104	2958	0.0012	0
104	3742	0.0015	1
104	3938	0.0016	0
104	4722	0.0019	1
104	4918	0.002	0
104	5702	0.0023	1
104	5898	0.0024	0
104	6682	0.0027	1
104	6878	0.0028	0
104	7662	0.0031	1
104	7858	0.0032	0
104	8642	0.0035	1
104	8838	0.0036	0
104	9622	0.0039	1
104	9818	0.004	0
104	10602	0.0043	1
104	10798	0.0044	0
104	11582	0.0047	1
104	11778	0.0048	0
104	12562	0.0051	1
104	12758	0.0052	0
104	13542	0.0055	1
104	13738	0.0056	0
104	14522	0.0059	1
104	14718	0.006	0
104	15502	0.0063	1
104	15698	0.0064	0
104	16482	0.0067	1
104	16678	0.0068	0
104	17462	0.0071	1
104	17658	0.0072	0
104	18442	0.0075	1
104	18638	0.0076	0
104	19422	0.0079	1
104	19618	0.008	0
105	28	0	0
105	804	0.0003	1
105	1000	0.0004	0
105	1784	0.0007	1
105	1980	0.0008	0
105	2764	0.0011	1
105	2960	0.0012	0
105	3744	0.0015	1
105	3940	0.0016	0
105	4724	0.0019	1
105	4920	0.002	0
105	5704	0.0023	1
105	5900	0.0024	0
105	6684	0.0027	1
105	6880	0.0028	0
105	7664	0.0031	1
105	7860	0.0032	0
105	8644	0.0035	1
105	8840	0.0036	0
105	9624	0.0039	1
105	9820	0.004	0
105	10604	0.0043	1
105	10800	0.0044	0
105	11584	0.0047	1
105	11780	0.0048	0
105	12564	0.0051	1
105	12760	0.0052	0
105	13544	0.0055	1
105	13740	0.0056	0
105	14524	0.0059	1
105	14720	0.006	0
105	15504	0.0063	1
105	15700	0.0064	0
105	16484	0.0067	1
105	16680	0.0068	0
105	17464	0.0071	1
105	17660	0.0072	0
105	18444	0.0075	1
105	18640	0.0076	0
105	19424	0.0079	1
105	19620	0.008	0
106	30	0	0
106	806	0.0003	1
106	1002	0.0004	0
106	1786	0.0007	1
106	1982	0.0008	0
106	2766	0.0011	1
106	2962	0.0012	0
106	3746	0.0015	1
106	3942	0.0016	0
106	4726	0.0019	1
106	4922	0.002	0
106	5706	0.0023	1
106	5902	0.0024	0
106	6686	0.0027	1
106	6882	0.0028	0
106	7666	0.0031	1
106	7862	0.0032	0
106	8646	0.0035	1
106	8842	0.0036	0
106	9626	0.0039	1
106	9822	0.004	0
106	10606	0.0043	1
106	10802	0.0044	0
106	11586	0.0047	1
106	11782	0.0048	0
106	12566	0.0051	1
106	12762	0.0052	0
106	13546	0.0055	1
106	13742	0.0056	0
106	14526	0.0059	1
106	14722	0.006	0
106	15506	0.0063	1
106	15702	0.0064	0
106	16486	0.0067	1
106	16682	0.0068	0
106	17466	0.0071	1
106	17662	0.0072	0
106	18446	0.0075	1
106	18642	0.0076	0
106	19426	0.0079	1
106	19622	0.008	0
107	32	0	0
107	808	0.0003	1
107	1004	0.0004	0
107	1788	0.0007	1
107	1984	0.0008	0
107	2768	0.0011	1
107	2964	0.0012	0
107	3748	0.0015	1
107	3944	0.0016	0
107	4728	0.0019	1
107	4924	0.002	0
107	5708	0.0023	1
107	5904	0.0024	0
107	6688	0.0027	1
107	6884	0.0028	0
107	7668	0.0031	1
107	7864	0.0032	0
107	8648	0.0035	1
107	8844	0.0036	0
107	9628	0.0039	1
107	9824	0.004	0
107	10608	0.0043	1
107	10804	0.0044	0
107	11588	0.0047	1
107	11784	0.0048	0
107	12568	0.0051	1
107	12764	0.0052	0
107	13548	0.0055	1
107	13744	0.0056	0
107	14528	0.0059	1
107	14724	0.006	0
107	15508	0.0063	1
107	15704	0.0064	0
107	16488	0.0067	1
107	16684	0.0068	0
107	17468	0.0071	1
107	17664	0.0072	0
107	18448	0.0075	1
107	18644	0.0076	0
107	19428	0.0079	1
107	19624	0.008	0
108	34	0	0
108	810	0.0003	1
108	1006	0.0004	0
108	1790	0.0007	1
108	1986	0.0008	0
108	2770	0.0011	1
108	2966	0.0012	0
108	3750	0.0015	1
108	3946	0.0016	0
108	4730	0.0019	1
108	4926	0.002	0
108	5710	0.0023	1
108	5906	0.0024	0
108	6690	0.0027	1
108	6886	0.0028	0
108	7670	0.0031	1
108	7866	0.0032	0
108	8650	0.0035	1
108	8846	0.0036	0
108	9630	0.0039	1
108	9826	0.004	0
108	10610	0.0043	1
108	10806	0.0044	0
108	11590	0.0047	1
108	11786	0.0048	0
108	12570	0.0051	1
108	12766	0.0052	0
108	13550	0.0055	1
108	13746	0.0056	0
108	14530	0.0059	1
108	14726	0.006	0
108	15510	0.0063	1
108	15706	0.0064	0
108	16490	0.0067	1
108	16686	0.0068	0
108	17470	0.0071	1
108	17666	0.0072	0
108	18450	0.0075	1
108	18646	0.0076	0
108	19430	0.0079	1
108	19626	0.008	0
109	36	0	0
109	812	0.0003	1
109	1008	0.0004	0
109	1792	0.0007	1
109	1988	0.0008	0
109	2772	0.0011	1
109	2968	0.0012	0
109	3752	0.0015	1
109	3948	0.0016	0
109	4732	0.0019	1
109	4928	0.002	0
109	5712	0.0023	1
109	5908	0.0024	0
109	6692	0.0027	1
109	6888	0.0028	0
109	7672	0.0031	1
109	7868	0.0032	0
109	8652	0.0035	1
109	8848	0.0036	0
109	9632	0.0039	1
109	9828	0.004	0
109	10612	0.0043	1
109	10808	0.0044	0
109	11592	0.0047	1
109	11788	0.0048	0
109	12572	0.0051	1
109	12768	0.0052	0
109	13552	0.0055	1
109	13748	0.0056	0
109	14532	0.0059	1
109	14728	0.006	0
109	15512	0.0063	1
109	15708	0.0064	0
109	16492	0.0067	1
109	16688	0.0068	0
109	17472	0.0071	1
109	17668	0.0072	0
109	18452	0.0075	1
109	18648	0.0076	0
109	19432	0.0079	1
109	19628	0.008	0
110	39	0	0
110	816	0.0003	1
110	1012	0.0004	0
110	1796	0.0007	1
110	1992	0.0008	0
110	2776	0.0011	1
110	2972	0.0012	0
110	3756	0.0015	1
110	3952	0.0016	0
110	4736	0.0019	1
110	4932	0.002	0
110	5716	0.0023	1
110	5912	0.0024	0
110	6696	0.0027	1
110	6892	0.0028	0
110	7676	0.0031	1
110	7872	0.0032	0
110	8656	0.0035	1
110	8852	0.0036	0
[...]
298	18270	0.007306576	60
298	19250	0.007706576	60
299	632	0.000106576	56
299	1612	0.000506576	56
299	2592	0.000906576	56
299	3572	0.001306576	56
299	4552	0.001706576	56
299	5532	0.002106576	56
299	6512	0.002506576	56
299	7492	0.002906576	56
299	8472	0.003306576	56
299	9452	0.003706576	56
299	10432	0.004106576	56
299	11412	0.004506576	56
299	12392	0.004906576	56
299	13372	0.005306576	56
299	14352	0.005706576	56
299	15332	0.006106576	56
299	16312	0.006506576	56
299	17292	0.006906576	56
299	18272	0.007306576	56
299	19252	0.007706576	56
300	637	0.000106576	50
300	1617	0.000506576	50
300	2597	0.000906576	50
300	3577	0.001306576	50
300	4557	0.001706576	50
300	5537	0.002106576	50
300	6517	0.002506576	50
300	7497	0.002906576	50
300	8477	0.003306576	50
300	9457	0.003706576	50
300	10437	0.004106576	50
300	11417	0.004506576	50
300	12397	0.004906576	50
300	13377	0.005306576	50
300	14357	0.005706576	50
300	15337	0.006106576	50
300	16317	0.006506576	50
300	17297	0.006906576	50
300	18277	0.007306576	50
300	19257	0.007706576	50
301	637	0.000106576	5e-06
301	1617	0.000506576	5e-06
301	2597	0.000906576	5e-06
301	3577	0.001306576	5e-06
301	4557	0.001706576	5e-06
301	5537	0.002106576	5e-06
301	6517	0.002506576	5e-06
301	7497	0.002906576	5e-06
301	8477	0.003306576	5e-06
301	9457	0.003706576	5e-06
301	10437	0.004106576	5e-06
301	11417	0.004506576	5e-06
301	12397	0.004906576	5e-06
301	13377	0.005306576	5e-06
301	14357	0.005706576	5e-06
301	15337	0.006106576	5e-06
301	16317	0.006506576	5e-06
301	17297	0.006906576	5e-06
301	18277	0.007306576	5e-06
301	19257	0.007706576	5e-06
302	638	0.000111576	50
302	1618	0.000511576	50
302	2598	0.000911576	50
302	3578	0.001311576	50
302	4558	0.001711576	50
302	5538	0.002111576	50
302	6518	0.002511576	50
302	7498	0.002911576	50
302	8478	0.003311576	50
302	9458	0.003711576	50
302	10438	0.004111576	50
302	11418	0.004511576	50
302	12398	0.004911576	50
302	13378	0.005311576	50
302	14358	0.005711576	50
302	15338	0.006111576	50
302	16318	0.006511576	50
302	17298	0.006911576	50
302	18278	0.007311576	50
302	19258	0.007711576	50
303	738	0.0002	0.00014380112
303	1718	0.0006	0.00014380112
303	2698	0.001	0.00014380112
303	3678	0.0014	0.00014380112
303	4658	0.0018	0.00014380112
303	5638	0.0022	0.00014380112
303	6618	0.0026	0.00014380112
303	7598	0.003	0.00014380112
303	8578	0.0034	0.00014380112
303	9558	0.0038	0.00014380112
303	10538	0.0042	0.00014380112
303	11518	0.0046	0.00014380112
303	12498	0.005	0.00014380112
303	13478	0.0054	0.00014380112
303	14458	0.0058	0.00014380112
303	15438	0.0062	0.00014380112
303	16418	0.0066	0.00014380112
303	17398	0.007	0.00014380112
303	18378	0.0074	0.00014380112
303	19358	0.0078	0.00014380112
304	742	0.0002	110
304	1722	0.0006	110
304	2702	0.001	110
304	3682	0.0014	110
304	4662	0.0018	110
304	5642	0.0022	110
304	6622	0.0026	110
304	7602	0.003	110
304	8582	0.0034	110
304	9562	0.0038	110
304	10542	0.0042	110
304	11522	0.0046	110
304	12502	0.005	110
304	13482	0.0054	110
304	14462	0.0058	110
304	15442	0.0062	110
304	16422	0.0066	110
304	17402	0.007	110
304	18382	0.0074	110
304	19362	0.0078	110
305	743	0.0002	110
305	1723	0.0006	110
305	2703	0.001	110
305	3683	0.0014	110
305	4663	0.0018	110
305	5643	0.0022	110
305	6623	0.0026	110
305	7603	0.003	110
305	8583	0.0034	110
305	9563	0.0038	110
305	10543	0.0042	110
305	11523	0.0046	110
305	12503	0.005	110
305	13483	0.0054	110
305	14463	0.0058	110
305	15443	0.0062	110
305	16423	0.0066	110
305	17403	0.007	110
305	18383	0.0074	110
305	19363	0.0078	110
306	744	0.0002	128
306	1724	0.0006	128
306	2704	0.001	128
306	3684	0.0014	128
306	4664	0.0018	128
306	5644	0.0022	128
306	6624	0.0026	128
306	7604	0.003	128
306	8584	0.0034	128
306	9564	0.0038	128
306	10544	0.0042	128
306	11524	0.0046	128
306	12504	0.005	128
306	13484	0.0054	128
306	14464	0.0058	128
306	15444	0.0062	128
306	16424	0.0066	128
306	17404	0.007	128
306	18384	0.0074	128
306	19364	0.0078	128
307	744	0.0002	0
307	1724	0.0006	0
307	2704	0.001	0
307	3684	0.0014	0
307	4664	0.0018	0
307	5644	0.0022	0
307	6624	0.0026	0
307	7604	0.003	0
307	8584	0.0034	0
307	9564	0.0038	0
307	10544	0.0042	0
307	11524	0.0046	0
307	12504	0.005	0
307	13484	0.0054	0
307	14464	0.0058	0
307	15444	0.0062	0
307	16424	0.0066	0
307	17404	0.007	0
307	18384	0.0074	0
307	19364	0.0078	0
308	745	0.000201088	128
308	1725	0.000601088	128
308	2705	0.001001088	128
308	3685	0.001401088	128
308	4665	0.001801088	128
308	5645	0.002201088	128
308	6625	0.002601088	128
308	7605	0.003001088	128
308	8585	0.003401088	128
308	9565	0.003801088	128
308	10545	0.004201088	128
308	11525	0.004601088	128
308	12505	0.005001088	128
308	13485	0.005401088	128
308	14465	0.005801088	128
308	15445	0.006201088	128
308	16425	0.006601088	128
308	17405	0.007001088	128
308	18385	0.007401088	128
308	19365	0.007801088	128
309	748	0.000201188	136
309	1728	0.000601188	136
309	2708	0.001001188	136
309	3688	0.001401188	136
309	4668	0.001801188	136
309	5648	0.002201188	136
309	6628	0.002601188	136
309	7608	0.003001188	136
309	8588	0.003401188	136
309	9568	0.003801188	136
309	10548	0.004201188	136
309	11528	0.004601188	136
309	12508	0.005001188	136
309	13488	0.005401188	136
309	14468	0.005801188	136
309	15448	0.006201188	136
309	16428	0.006601188	136
309	17408	0.007001188	136
309	18388	0.007401188	136
309	19368	0.007801188	136
310	748	0.000201188	128
310	1728	0.000601188	128
310	2708	0.001001188	128
310	3688	0.001401188	128
310	4668	0.001801188	128
310	5648	0.002201188	128
310	6628	0.002601188	128
310	7608	0.003001188	128
310	8588	0.003401188	128
310	9568	0.003801188	128
310	10548	0.004201188	128
310	11528	0.004601188	128
310	12508	0.005001188	128
310	13488	0.005401188	128
310	14468	0.005801188	128
310	15448	0.006201188	128
310	16428	0.006601188	128
310	17408	0.007001188	128
310	18388	0.007401188	128
310	19368	0.007801188	128
311	748	0.000201188	128
311	1728	0.000601188	128
311	2708	0.001001188	128
311	3688	0.001401188	128
311	4668	0.001801188	128
311	5648	0.002201188	128
311	6628	0.002601188	128
311	7608	0.003001188	128
311	8588	0.003401188	128
311	9568	0.003801188	128
311	10548	0.004201188	128
311	11528	0.004601188	128
311	12508	0.005001188	128
311	13488	0.005401188	128
311	14468	0.005801188	128
311	15448	0.006201188	128
311	16428	0.006601188	128
311	17408	0.007001188	128
311	18388	0.007401188	128
311	19368	0.007801188	128
312	749	0.000201188	110
312	1729	0.000601188	110
312	2709	0.001001188	110
312	3689	0.001401188	110
312	4669	0.001801188	110
312	5649	0.002201188	110
312	6629	0.002601188	110
312	7609	0.003001188	110
312	8589	0.003401188	110
312	9569	0.003801188	110
312	10549	0.004201188	110
312	11529	0.004601188	110
312	12509	0.005001188	110
312	13489	0.005401188	110
312	14469	0.005801188	110
312	15449	0.006201188	110
312	16429	0.006601188	110
312	17409	0.007001188	110
312	18389	0.007401188	110
312	19369	0.007801188	110
313	750	0.000201188	106
313	1730	0.000601188	106
313	2710	0.001001188	106
313	3690	0.001401188	106
313	4670	0.001801188	106
313	5650	0.002201188	106
313	6630	0.002601188	106
313	7610	0.003001188	106
313	8590	0.003401188	106
313	9570	0.003801188	106
313	10550	0.004201188	106
313	11530	0.004601188	106
313	12510	0.005001188	106
313	13490	0.005401188	106
313	14470	0.005801188	106
313	15450	0.006201188	106
313	16430	0.006601188	106
313	17410	0.007001188	106
313	18390	0.007401188	106
313	19370	0.007801188	106
314	755	0.000201188	100
314	1735	0.000601188	100
314	2715	0.001001188	100
314	3695	0.001401188	100
314	4675	0.001801188	100
314	5655	0.002201188	100
314	6635	0.002601188	100
314	7615	0.003001188	100
314	8595	0.003401188	100
314	9575	0.003801188	100
314	10555	0.004201188	100
314	11535	0.004601188	100
314	12515	0.005001188	100
314	13495	0.005401188	100
314	14475	0.005801188	100
314	15455	0.006201188	100
314	16435	0.006601188	100
314	17415	0.007001188	100
314	18395	0.007401188	100
314	19375	0.007801188	100
315	755	0.000201188	5e-06
315	1735	0.000601188	5e-06
315	2715	0.001001188	5e-06
315	3695	0.001401188	5e-06
315	4675	0.001801188	5e-06
315	5655	0.002201188	5e-06
315	6635	0.002601188	5e-06
315	7615	0.003001188	5e-06
315	8595	0.003401188	5e-06
315	9575	0.003801188	5e-06
315	10555	0.004201188	5e-06
315	11535	0.004601188	5e-06
315	12515	0.005001188	5e-06
315	13495	0.005401188	5e-06
315	14475	0.005801188	5e-06
315	15455	0.006201188	5e-06
315	16435	0.006601188	5e-06
315	17415	0.007001188	5e-06
315	18395	0.007401188	5e-06
315	19375	0.007801188	5e-06
316	756	0.000206188	100
316	1736	0.000606188	100
316	2716	0.001006188	100
316	3696	0.001406188	100
316	4676	0.001806188	100
316	5656	0.002206188	100
316	6636	0.002606188	100
316	7616	0.003006188	100
316	8596	0.003406188	100
316	9576	0.003806188	100
316	10556	0.004206188	100
316	11536	0.004606188	100
316	12516	0.005006188	100
316	13496	0.005406188	100
316	14476	0.005806188	100
316	15456	0.006206188	100
316	16436	0.006606188	100
316	17416	0.007006188	100
316	18396	0.007406188	100
316	19376	0.007806188	100
317	763	0.000206188	106
317	1743	0.000606188	106
317	2723	0.001006188	106
317	3703	0.001406188	106
317	4683	0.001806188	106
317	5663	0.002206188	106
317	6643	0.002606188	106
317	7623	0.003006188	106
317	8603	0.003406188	106
317	9583	0.003806188	106
317	10563	0.004206188	106
317	11543	0.004606188	106
317	12523	0.005006188	106
317	13503	0.005406188	106
317	14483	0.005806188	106
317	15463	0.006206188	106
317	16443	0.006606188	106
317	17423	0.007006188	106
317	18403	0.007406188	106
317	19383	0.007806188	106
318	769	0.000206188	0
318	1749	0.000606188	0
318	2729	0.001006188	0
318	3709	0.001406188	0
318	4689	0.001806188	0
318	5669	0.002206188	0
318	6649	0.002606188	0
318	7629	0.003006188	0
318	8609	0.003406188	0
318	9589	0.003806188	0
318	10569	0.004206188	0
318	11549	0.004606188	0
318	12529	0.005006188	0
318	13509	0.005406188	0
318	14489	0.005806188	0
318	15469	0.006206188	0
318	16449	0.006606188	0
318	17429	0.007006188	0
318	18409	0.007406188	0
318	19389	0.007806188	0
319	773	0.000206188	110
319	1753	0.000606188	110
319	2733	0.001006188	110
319	3713	0.001406188	110
319	4693	0.001806188	110
319	5673	0.002206188	110
319	6653	0.002606188	110
319	7633	0.003006188	110
319	8613	0.003406188	110
319	9593	0.003806188	110
319	10573	0.004206188	110
319	11553	0.004606188	110
319	12533	0.005006188	110
319	13513	0.005406188	110
319	14493	0.005806188	110
319	15473	0.006206188	110
319	16453	0.006606188	110
319	17433	0.007006188	110
319	18413	0.007406188	110
319	19393	0.007806188	110
320	774	0.000206188	110
320	1754	0.000606188	110
320	2734	0.001006188	110
320	3714	0.001406188	110
320	4694	0.001806188	110
320	5674	0.002206188	110
320	6654	0.002606188	110
320	7634	0.003006188	110
320	8614	0.003406188	110
320	9594	0.003806188	110
320	10574	0.004206188	110
320	11554	0.004606188	110
320	12534	0.005006188	110
320	13514	0.005406188	110
320	14494	0.005806188	110
320	15474	0.006206188	110
320	16454	0.006606188	110
320	17434	0.007006188	110
320	18414	0.007406188	110
320	19394	0.007806188	110
321	775	0.000206188	128
321	1755	0.000606188	128
321	2735	0.001006188	128
321	3715	0.001406188	128
321	4695	0.001806188	128
321	5675	0.002206188	128
321	6655	0.002606188	128
321	7635	0.003006188	128
321	8615	0.003406188	128
321	9595	0.003806188	128
321	10575	0.004206188	128
321	11555	0.004606188	128
321	12535	0.005006188	128
321	13515	0.005406188	128
321	14495	0.005806188	128
321	15475	0.006206188	128
321	16455	0.006606188	128
321	17435	0.007006188	128
321	18415	0.007406188	128
321	19395	0.007806188	128
322	775	0.000206188	0
322	1755	0.000606188	0
322	2735	0.001006188	0
322	3715	0.001406188	0
322	4695	0.001806188	0
322	5675	0.002206188	0
322	6655	0.002606188	0
322	7635	0.003006188	0
322	8615	0.003406188	0
322	9595	0.003806188	0
322	10575	0.004206188	0
322	11555	0.004606188	0
322	12535	0.005006188	0
322	13515	0.005406188	0
322	14495	0.005806188	0
322	15475	0.006206188	0
322	16455	0.006606188	0
322	17435	0.007006188	0
322	18415	0.007406188	0
322	19395	0.007806188	0
323	776	0.000207276	128
323	1756	0.000607276	128
323	2736	0.001007276	128
323	3716	0.001407276	128
323	4696	0.001807276	128
323	5676	0.002207276	128
323	6656	0.002607276	128
323	7636	0.003007276	128
323	8616	0.003407276	128
323	9596	0.003807276	128
323	10576	0.004207276	128
323	11556	0.004607276	128
323	12536	0.005007276	128
323	13516	0.005407276	128
323	14496	0.005807276	128
323	15476	0.006207276	128
323	16456	0.006607276	128
323	17436	0.007007276	128
323	18416	0.007407276	128
323	19396	0.007807276	128
324	779	0.000207376	128
324	1759	0.000607376	128
324	2739	0.001007376	128
324	3719	0.001407376	128
324	4699	0.001807376	128
324	5679	0.002207376	128
324	6659	0.002607376	128
324	7639	0.003007376	128
324	8619	0.003407376	128
324	9599	0.003807376	128
324	10579	0.004207376	128
324	11559	0.004607376	128
324	12539	0.005007376	128
324	13519	0.005407376	128
324	14499	0.005807376	128
324	15479	0.006207376	128
324	16459	0.006607376	128
324	17439	0.007007376	128
324	18419	0.007407376	128
324	19399	0.007807376	128
325	779	0.000207376	128
325	1759	0.000607376	128
325	2739	0.001007376	128
325	3719	0.001407376	128
325	4699	0.001807376	128
325	5679	0.002207376	128
325	6659	0.002607376	128
325	7639	0.003007376	128
325	8619	0.003407376	128
325	9599	0.003807376	128
325	10579	0.004207376	128
325	11559	0.004607376	128
325	12539	0.005007376	128
325	13519	0.005407376	128
325	14499	0.005807376	128
325	15479	0.006207376	128
325	16459	0.006607376	128
325	17439	0.007007376	128
325	18419	0.007407376	128
325	19399	0.007807376	128
326	798	0.0003	0
326	994	0.0004	1
326	1778	0.0007	0
326	1974	0.0008	1
326	2758	0.0011	0
326	2954	0.0012	1
326	3738	0.0015	0
326	3934	0.0016	1
326	4718	0.0019	0
326	4914	0.002	1
326	5698	0.0023	0
326	5894	0.0024	1
326	6678	0.0027	0
326	6874	0.0028	1
326	7658	0.0031	0
326	7854	0.0032	1
326	8638	0.0035	0
326	8834	0.0036	1
326	9618	0.0039	0
326	9814	0.004	1
326	10598	0.0043	0
326	10794	0.0044	1
326	11578	0.0047	0
326	11774	0.0048	1
326	12558	0.0051	0
326	12754	0.0052	1
326	13538	0.0055	0
326	13734	0.0056	1
326	14518	0.0059	0
326	14714	0.006	1
326	15498	0.0063	0
326	15694	0.0064	1
326	16478	0.0067	0
326	16674	0.0068	1
326	17458	0.0071	0
326	17654	0.0072	1
326	18438	0.0075	0
326	18634	0.0076	1
326	19418	0.0079	0
326	19614	0.008	1
327	814	0.0003	0
327	1010	0.0004	1
327	1794	0.0007	0
327	1990	0.0008	1
327	2774	0.0011	0
327	2970	0.0012	1
327	3754	0.0015	0
327	3950	0.0016	1
327	4734	0.0019	0
327	4930	0.002	1
327	5714	0.0023	0
327	5910	0.0024	1
327	6694	0.0027	0
327	6890	0.0028	1
327	7674	0.0031	0
327	7870	0.0032	1
327	8654	0.0035	0
327	8850	0.0036	1
327	9634	0.0039	0
327	9830	0.004	1
327	10614	0.0043	0
327	10810	0.0044	1
327	11594	0.0047	0
327	11790	0.0048	1
327	12574	0.0051	0
327	12770	0.0052	1
327	13554	0.0055	0
327	13750	0.0056	1
327	14534	0.0059	0
327	14730	0.006	1
327	15514	0.0063	0
327	15710	0.0064	1
327	16494	0.0067	0
327	16690	0.0068	1
327	17474	0.0071	0
327	17670	0.0072	1
327	18454	0.0075	0
327	18650	0.0076	1
327	19434	0.0079	0
327	19630	0.008	1
328	830	0.0003	0
328	1026	0.0004	1
328	1810	0.0007	0
328	2006	0.0008	1
328	2790	0.0011	0
328	2986	0.0012	1
328	3770	0.0015	0
328	3966	0.0016	1
328	4750	0.0019	0
328	4946	0.002	1
328	5730	0.0023	0
328	5926	0.0024	1
328	6710	0.0027	0
328	6906	0.0028	1
328	7690	0.0031	0
328	7886	0.0032	1
328	8670	0.0035	0
328	8866	0.0036	1
328	9650	0.0039	0
328	9846	0.004	1
328	10630	0.0043	0
328	10826	0.0044	1
328	11610	0.0047	0
328	11806	0.0048	1
328	12590	0.0051	0
328	12786	0.0052	1
328	13570	0.0055	0
328	13766	0.0056	1
328	14550	0.0059	0
328	14746	0.006	1
328	15530	0.0063	0
328	15726	0.0064	1
328	16510	0.0067	0
328	16706	0.0068	1
328	17490	0.0071	0
328	17686	0.0072	1
328	18470	0.0075	0
328	18666	0.0076	1
328	19450	0.0079	0
328	19646	0.008	1
329	846	0.0003	0
329	1042	0.0004	1
329	1826	0.0007	0
329	2022	0.0008	1
329	2806	0.0011	0
329	3002	0.0012	1
329	3786	0.0015	0
329	3982	0.0016	1
329	4766	0.0019	0
329	4962	0.002	1
329	5746	0.0023	0
329	5942	0.0024	1
329	6726	0.0027	0
329	6922	0.0028	1
329	7706	0.0031	0
329	7902	0.0032	1
329	8686	0.0035	0
329	8882	0.0036	1
329	9666	0.0039	0
329	9862	0.004	1
329	10646	0.0043	0
329	10842	0.0044	1
329	11626	0.0047	0
329	11822	0.0048	1
329	12606	0.0051	0
329	12802	0.0052	1
329	13586	0.0055	0
329	13782	0.0056	1
329	14566	0.0059	0
329	14762	0.006	1
329	15546	0.0063	0
329	15742	0.0064	1
329	16526	0.0067	0
329	16722	0.0068	1
329	17506	0.0071	0
329	17702	0.0072	1
329	18486	0.0075	0
329	18682	0.0076	1
329	19466	0.0079	0
329	19662	0.008	1
330	862	0.0003	0
330	1058	0.0004	1
330	1842	0.0007	0
330	2038	0.0008	1
330	2822	0.0011	0
330	3018	0.0012	1
330	3802	0.0015	0
330	3998	0.0016	1
330	4782	0.0019	0
330	4978	0.002	1
330	5762	0.0023	0
330	5958	0.0024	1
330	6742	0.0027	0
330	6938	0.0028	1
330	7722	0.0031	0
330	7918	0.0032	1
330	8702	0.0035	0
330	8898	0.0036	1
330	9682	0.0039	0
330	9878	0.004	1
330	10662	0.0043	0
330	10858	0.0044	1
330	11642	0.0047	0
330	11838	0.0048	1
330	12622	0.0051	0
330	12818	0.0052	1
330	13602	0.0055	0
330	13798	0.0056	1
330	14582	0.0059	0
330	14778	0.006	1
330	15562	0.0063	0
330	15758	0.0064	1
330	16542	0.0067	0
330	16738	0.0068	1
330	17522	0.0071	0
330	17718	0.0072	1
330	18502	0.0075	0
330	18698	0.0076	1
330	19482	0.0079	0
330	19678	0.008	1
331	878	0.0003	0
331	1074	0.0004	1
331	1858	0.0007	0
331	2054	0.0008	1
331	2838	0.0011	0
331	3034	0.0012	1
331	3818	0.0015	0
331	4014	0.0016	1
331	4798	0.0019	0
331	4994	0.002	1
331	5778	0.0023	0
331	5974	0.0024	1
331	6758	0.0027	0
331	6954	0.0028	1
331	7738	0.0031	0
331	7934	0.0032	1
331	8718	0.0035	0
331	8914	0.0036	1
331	9698	0.0039	0
331	9894	0.004	1
331	10678	0.0043	0
331	10874	0.0044	1
331	11658	0.0047	0
331	11854	0.0048	1
331	12638	0.0051	0
331	12834	0.0052	1
331	13618	0.0055	0
331	13814	0.0056	1
331	14598	0.0059	0
331	14794	0.006	1
331	15578	0.0063	0
331	15774	0.0064	1
331	16558	0.0067	0
331	16754	0.0068	1
331	17538	0.0071	0
331	17734	0.0072	1
331	18518	0.0075	0
331	18714	0.0076	1
331	19498	0.0079	0
331	19694	0.008	1
332	903	0.0003	0
332	1106	0.0004	1
332	1883	0.0007	0
332	2086	0.0008	1
332	2863	0.0011	0
332	3066	0.0012	1
332	3843	0.0015	0
332	4046	0.0016	1
332	4823	0.0019	0
332	5026	0.002	1
332	5803	0.0023	0
332	6006	0.0024	1
332	6783	0.0027	0
332	6986	0.0028	1
332	7763	0.0031	0
332	7966	0.0032	1
332	8743	0.0035	0
332	8946	0.0036	1
332	9723	0.0039	0
332	9926	0.004	1
332	10703	0.0043	0
332	10906	0.0044	1
332	11683	0.0047	0
332	11886	0.0048	1
332	12663	0.0051	0
332	12866	0.0052	1
332	13643	0.0055	0
332	13846	0.0056	1
332	14623	0.0059	0
332	14826	0.006	1
332	15603	0.0063	0
332	15806	0.0064	1
332	16583	0.0067	0
332	16786	0.0068	1
332	17563	0.0071	0
332	17766	0.0072	1
332	18543	0.0075	0
332	18746	0.0076	1
332	19523	0.0079	0
332	19726	0.008	1
333	919	0.0003	0
333	1122	0.0004	1
333	1899	0.0007	0
333	2102	0.0008	1
333	2879	0.0011	0
333	3082	0.0012	1
333	3859	0.0015	0
333	4062	0.0016	1
333	4839	0.0019	0
333	5042	0.002	1
333	5819	0.0023	0
333	6022	0.0024	1
333	6799	0.0027	0
333	7002	0.0028	1
333	7779	0.0031	0
333	7982	0.0032	1
333	8759	0.0035	0
333	8962	0.0036	1
333	9739	0.0039	0
333	9942	0.004	1
333	10719	0.0043	0
333	10922	0.0044	1
333	11699	0.0047	0
333	11902	0.0048	1
333	12679	0.0051	0
333	12882	0.0052	1
333	13659	0.0055	0
333	13862	0.0056	1
333	14639	0.0059	0
333	14842	0.006	1
333	15619	0.0063	0
333	15822	0.0064	1
333	16599	0.0067	0
333	16802	0.0068	1
333	17579	0.0071	0
333	17782	0.0072	1
333	18559	0.0075	0
333	18762	0.0076	1
333	19539	0.0079	0
333	19742	0.008	1
334	935	0.0003	0
334	1138	0.0004	1
334	1915	0.0007	0
334	2118	0.0008	1
334	2895	0.0011	0
334	3098	0.0012	1
334	3875	0.0015	0
334	4078	0.0016	1
334	4855	0.0019	0
334	5058	0.002	1
334	5835	0.0023	0
334	6038	0.0024	1
334	6815	0.0027	0
334	7018	0.0028	1
334	7795	0.0031	0
334	7998	0.0032	1
334	8775	0.0035	0
334	8978	0.0036	1
334	9755	0.0039	0
334	9958	0.004	1
334	10735	0.0043	0
334	10938	0.0044	1
334	11715	0.0047	0
334	11918	0.0048	1
334	12695	0.0051	0
334	12898	0.0052	1
334	13675	0.0055	0
334	13878	0.0056	1
334	14655	0.0059	0
334	14858	0.006	1
334	15635	0.0063	0
334	15838	0.0064	1
334	16615	0.0067	0
334	16818	0.0068	1
334	17595	0.0071	0
334	17798	0.0072	1
334	18575	0.0075	0
334	18778	0.0076	1
334	19555	0.0079	0
334	19758	0.008	1

