version 2
run General-0-20191105-14:18:28-24759
attr configname General
attr datetime 20191105-14:18:28
attr experiment General
attr inifile 13_example_strict-priority_non-fifo_host3.ini
attr iterationvars ""
attr iterationvarsf ""
attr measurement ""
attr network TestScenario7
attr processid 24759
attr repetition 0
attr replication #0
attr resultdir results_strict_priority
attr runnumber 0
attr seedset 0
param **.displayAddresses true
param **.verbose true
param **.promiscuous true
param **.registerProtocol true
param **.*.clock.clockRate "\"1us\""
param **.robotController.numberOfFlow 2
param **.robotController.flow1[0].eth.address "\"01-00-00-00-00-01\""
param **.robotController.flow1[1].eth.address "\"01-00-00-00-00-02\""
param **.roboticArm1.eth.address "\"01-00-00-00-00-04\""
param **.roboticArm2.eth.address "\"01-00-00-00-00-04\""
param **.switch*.processingDelay[*].delay 5us
param **.filteringDatabase.database "xmldoc(\"xml/TestScenarioRouting3.xml\", \"/filteringDatabases/\")"
param **.filteringDatabase.cycle "xmldoc(\"xml/TestScenarioSchedule_AllOpen2.xml\", \"/schedule/\")"
param **.gateController.initialSchedule "xmldoc(\"xml/TestScenarioSchedule_AllOpen2.xml\")"
param **.gateController.enableHoldAndRelease false
param **.switch*.eth[*].queuing.tsAlgorithms[0].typename "\"StrictPriority\""
param **.switch*.eth[*].queuing.tsAlgorithms[1].typename "\"StrictPriority\""
param **.switch*.eth[*].queuing.tsAlgorithms[2].typename "\"StrictPriority\""
param **.switch*.eth[*].queuing.tsAlgorithms[3].typename "\"StrictPriority\""
param **.switch*.eth[*].queuing.tsAlgorithms[4].typename "\"StrictPriority\""
param **.switch*.eth[*].queuing.tsAlgorithms[5].typename "\"StrictPriority\""
param **.switch*.eth[*].queuing.tsAlgorithms[6].typename "\"StrictPriority\""
param **.switch*.eth[*].queuing.tsAlgorithms[7].typename "\"NonFIFO\""
param **.queues[0].expressQueue true
param **.queues[1].expressQueue true
param **.queues[2].expressQueue true
param **.queues[3].expressQueue true
param **.queues[4].expressQueue true
param **.queues[5].expressQueue true
param **.queues[6].expressQueue true
param **.queues[7].expressQueue true
param **.queues[*].bufferCapacity 363360b
param **.switchA.eth[0].mac.enablePreemptingFrames false
param **.switchA.eth[1].mac.enablePreemptingFrames false
param **.robotController.flow1[0].trafGenSchedApp.initialSchedule "xmldoc(\"xml/TestScenarioSchedule_AllOpen2.xml\")"
param **.robotController.flow1[1].trafGenSchedApp.initialSchedule "xmldoc(\"xml/TestScenarioSchedule_AllOpen2.xml\")"
param **.roboticArm1.trafGenApp.numPacketsPerBurst 0
param **.roboticArm1.trafGenApp.sendInterval 1ms
param **.roboticArm1.trafGenApp.packetLength 100B
param **.roboticArm2.trafGenApp.numPacketsPerBurst 0
param **.roboticArm2.trafGenApp.sendInterval 1ms
param **.roboticArm2.trafGenApp.packetLength 100B

scalar TestScenario7.switchA.eth[0].mac "simulated time" 8.2981e-06
scalar TestScenario7.switchA.eth[0].mac full-duplex 1
scalar TestScenario7.switchA.eth[0].mac "frames/sec sent" 0
scalar TestScenario7.switchA.eth[0].mac "frames/sec rcvd" 241019.0284523
scalar TestScenario7.switchA.eth[0].mac "bits/sec sent" 0
scalar TestScenario7.switchA.eth[0].mac "bits/sec rcvd" 736554150.95022
scalar TestScenario7.switchA.eth[0].mac "rx channel idle (%)" 100
scalar TestScenario7.switchA.eth[0].mac "rx channel utilization (%)" 0
statistic TestScenario7.switchA.eth[0].mac pMacDelay:histogram
field count 0
field mean -nan
field stddev -nan
field min -nan
field max -nan
field sum 0
field sqrsum 0
attr interpolationmode none
attr title "pMacDelay, histogram"
bin	-inf	0
bin	0	0
bin	1	0
statistic TestScenario7.switchA.eth[0].mac eMacDelay:histogram
field count 0
field mean -nan
field stddev -nan
field min -nan
field max -nan
field sum 0
field sqrsum 0
attr interpolationmode none
attr title "eMacDelay, histogram"
bin	-inf	0
bin	0	0
bin	1	0
scalar TestScenario7.switchA.eth[0].mac expressFramesEnqueued:count 0
attr interpolationmode none
attr source expressFrameEnqueuedWhileSendingPreemptableSignal
attr title "express frames enqueued, count"
scalar TestScenario7.switchA.eth[0].mac mPacketsFull:count 0
attr interpolationmode none
attr source transmittedPreemptableFullSignal
attr title "mpackets full, count"
scalar TestScenario7.switchA.eth[0].mac mPacketsFinal:count 0
attr interpolationmode none
attr source transmittedPreemptableFinalSignal
attr title "mPackets final, count"
scalar TestScenario7.switchA.eth[0].mac mPacketsNonFinal:count 0
attr interpolationmode none
attr source transmittedPreemptableNonFinalSignal
attr title "mPackets non-final, count"
scalar TestScenario7.switchA.eth[0].mac mPackets:count 0
attr interpolationmode none
attr source transmittedPreemptableFramePartSignal
attr title "mPackets, count"
scalar TestScenario7.switchA.eth[0].mac preemptableFrames:count 0
attr interpolationmode none
attr source transmittedPreemptableFrameSignal
attr title "preemptableFrames, count"
scalar TestScenario7.switchA.eth[0].mac expressFrames:count 0
attr interpolationmode none
attr source transmittedExpressFrameSignal
attr title "expressFrames, count"
scalar TestScenario7.switchA.eth[0].mac preemptions:count 0
attr interpolationmode none
attr source preemptCurrentFrameSignal
attr title "preemptions, count"
scalar TestScenario7.switchA.eth[0].mac rxPausePkUnits:count 0
attr interpolationmode none
attr title "pause units received, count"
scalar TestScenario7.switchA.eth[0].mac rxPausePkUnits:sum 0
attr interpolationmode none
attr title "pause units received, sum"
scalar TestScenario7.switchA.eth[0].mac txPausePkUnits:count 0
attr interpolationmode none
attr title "pause units sent, count"
scalar TestScenario7.switchA.eth[0].mac txPausePkUnits:sum 0
attr interpolationmode none
attr title "pause units sent, sum"
scalar TestScenario7.switchA.eth[0].mac rxPkOk:count 2
attr interpolationmode none
attr source rxPkOk
attr title "packets received OK, count"
scalar TestScenario7.switchA.eth[0].mac rxPkOk:sum(packetBytes) 764
attr interpolationmode none
attr source rxPkOk
attr title "packets received OK, sum(packetBytes)"
scalar TestScenario7.switchA.eth[0].mac txPk:count 0
attr interpolationmode none
attr source packetSentToLower
attr title "packets transmitted, count"
scalar TestScenario7.switchA.eth[0].mac txPk:sum(packetBytes) 0
attr interpolationmode none
attr source packetSentToLower
attr title "packets transmitted, sum(packetBytes)"
scalar TestScenario7.switchA.eth[0].mac packetReceivedFromUpper:count 0
attr interpolationmode none
attr source packetReceivedFromUpper
attr title "packet bytes from higher layer, count"
scalar TestScenario7.switchA.eth[0].mac packetReceivedFromUpper:sum(packetBytes) 0
attr interpolationmode none
attr source packetReceivedFromUpper
attr title "packet bytes from higher layer, sum(packetBytes)"
scalar TestScenario7.switchA.eth[0].mac passedUpPk:count 2
attr interpolationmode none
attr source packetSentToUpper
attr title "packets passed to higher layer, count"
scalar TestScenario7.switchA.eth[0].mac passedUpPk:sum(packetBytes) 764
attr interpolationmode none
attr source packetSentToUpper
attr title "packets passed to higher layer, sum(packetBytes)"
scalar TestScenario7.switchA.eth[0].mac packetDropIncorrectlyReceived:count 0
attr interpolationmode none
attr source packetDropReasonIsIncorrectlyReceived(packetDropped)
attr title "packet drop: incorrectly received, count"
scalar TestScenario7.switchA.eth[0].mac packetDropIncorrectlyReceived:sum(packetBytes) 0
attr interpolationmode none
attr source packetDropReasonIsIncorrectlyReceived(packetDropped)
attr title "packet drop: incorrectly received, sum(packetBytes)"
scalar TestScenario7.switchA.eth[0].mac packetDropInterfaceDown:count 0
attr interpolationmode none
attr source packetDropReasonIsInterfaceDown(packetDropped)
attr title "packet drop: interface down, count"
scalar TestScenario7.switchA.eth[0].mac packetDropInterfaceDown:sum(packetBytes) 0
attr interpolationmode none
attr source packetDropReasonIsInterfaceDown(packetDropped)
attr title "packet drop: interface down, sum(packetBytes)"
scalar TestScenario7.switchA.eth[0].mac packetDropNotAddressedToUs:count 0
attr interpolationmode none
attr source packetDropReasonIsNotAddressedToUs(packetDropped)
attr title "packet drop: not addressed to us, count"
scalar TestScenario7.switchA.eth[0].mac packetDropNotAddressedToUs:sum(packetBytes) 0
attr interpolationmode none
attr source packetDropReasonIsNotAddressedToUs(packetDropped)
attr title "packet drop: not addressed to us, sum(packetBytes)"
scalar TestScenario7.switchA.eth[0].queuing.queues[0] dropPk:count 0
attr interpolationmode none
attr source dropPkByQueue
attr title "dropped packets, count"
scalar TestScenario7.switchA.eth[0].queuing.queues[0] dropPk:sum(packetBytes) 0
attr interpolationmode none
attr source dropPkByQueue
attr title "dropped packets, sum(packetBytes)"
scalar TestScenario7.switchA.eth[0].queuing.queues[0] rcvdPk:count 0
attr interpolationmode none
attr title "received packets, count"
scalar TestScenario7.switchA.eth[0].queuing.queues[0] rcvdPk:sum(packetBytes) 0
attr interpolationmode none
attr title "received packets, sum(packetBytes)"
statistic TestScenario7.switchA.eth[0].queuing.queues[0] queueingTime:histogram
field count 0
field mean -nan
field stddev -nan
field min -nan
field max -nan
field sum 0
field sqrsum 0
attr interpolationmode none
attr title "queueing time, histogram"
bin	-inf	0
bin	0	0
bin	1	0
scalar TestScenario7.switchA.eth[0].queuing.queues[0] queueLength:max 0
attr interpolationmode sample-hold
attr title "queue length, max"
scalar TestScenario7.switchA.eth[0].queuing.queues[0] queueLength:timeavg 0
attr interpolationmode sample-hold
attr title "queue length, timeavg"
scalar TestScenario7.switchA.eth[0].queuing.queues[1] dropPk:count 0
attr interpolationmode none
attr source dropPkByQueue
attr title "dropped packets, count"
scalar TestScenario7.switchA.eth[0].queuing.queues[1] dropPk:sum(packetBytes) 0
attr interpolationmode none
attr source dropPkByQueue
attr title "dropped packets, sum(packetBytes)"
scalar TestScenario7.switchA.eth[0].queuing.queues[1] rcvdPk:count 0
attr interpolationmode none
attr title "received packets, count"
scalar TestScenario7.switchA.eth[0].queuing.queues[1] rcvdPk:sum(packetBytes) 0
attr interpolationmode none
attr title "received packets, sum(packetBytes)"
statistic TestScenario7.switchA.eth[0].queuing.queues[1] queueingTime:histogram
field count 0
field mean -nan
field stddev -nan
field min -nan
field max -nan
field sum 0
field sqrsum 0
attr interpolationmode none
attr title "queueing time, histogram"
bin	-inf	0
bin	0	0
bin	1	0
scalar TestScenario7.switchA.eth[0].queuing.queues[1] queueLength:max 0
attr interpolationmode sample-hold
attr title "queue length, max"
scalar TestScenario7.switchA.eth[0].queuing.queues[1] queueLength:timeavg 0
attr interpolationmode sample-hold
attr title "queue length, timeavg"
scalar TestScenario7.switchA.eth[0].queuing.queues[2] dropPk:count 0
attr interpolationmode none
attr source dropPkByQueue
attr title "dropped packets, count"
scalar TestScenario7.switchA.eth[0].queuing.queues[2] dropPk:sum(packetBytes) 0
attr interpolationmode none
attr source dropPkByQueue
attr title "dropped packets, sum(packetBytes)"
scalar TestScenario7.switchA.eth[0].queuing.queues[2] rcvdPk:count 0
attr interpolationmode none
attr title "received packets, count"
scalar TestScenario7.switchA.eth[0].queuing.queues[2] rcvdPk:sum(packetBytes) 0
attr interpolationmode none
attr title "received packets, sum(packetBytes)"
statistic TestScenario7.switchA.eth[0].queuing.queues[2] queueingTime:histogram
field count 0
field mean -nan
field stddev -nan
field min -nan
field max -nan
field sum 0
field sqrsum 0
attr interpolationmode none
attr title "queueing time, histogram"
bin	-inf	0
bin	0	0
bin	1	0
scalar TestScenario7.switchA.eth[0].queuing.queues[2] queueLength:max 0
attr interpolationmode sample-hold
attr title "queue length, max"
scalar TestScenario7.switchA.eth[0].queuing.queues[2] queueLength:timeavg 0
attr interpolationmode sample-hold
attr title "queue length, timeavg"
scalar TestScenario7.switchA.eth[0].queuing.queues[3] dropPk:count 0
attr interpolationmode none
attr source dropPkByQueue
attr title "dropped packets, count"
scalar TestScenario7.switchA.eth[0].queuing.queues[3] dropPk:sum(packetBytes) 0
attr interpolationmode none
attr source dropPkByQueue
attr title "dropped packets, sum(packetBytes)"
scalar TestScenario7.switchA.eth[0].queuing.queues[3] rcvdPk:count 0
attr interpolationmode none
attr title "received packets, count"
scalar TestScenario7.switchA.eth[0].queuing.queues[3] rcvdPk:sum(packetBytes) 0
attr interpolationmode none
attr title "received packets, sum(packetBytes)"
statistic TestScenario7.switchA.eth[0].queuing.queues[3] queueingTime:histogram
field count 0
field mean -nan
field stddev -nan
field min -nan
field max -nan
field sum 0
field sqrsum 0
attr interpolationmode none
attr title "queueing time, histogram"
bin	-inf	0
bin	0	0
bin	1	0
scalar TestScenario7.switchA.eth[0].queuing.queues[3] queueLength:max 0
attr interpolationmode sample-hold
attr title "queue length, max"
scalar TestScenario7.switchA.eth[0].queuing.queues[3] queueLength:timeavg 0
attr interpolationmode sample-hold
attr title "queue length, timeavg"
scalar TestScenario7.switchA.eth[0].queuing.queues[4] dropPk:count 0
attr interpolationmode none
attr source dropPkByQueue
attr title "dropped packets, count"
scalar TestScenario7.switchA.eth[0].queuing.queues[4] dropPk:sum(packetBytes) 0
attr interpolationmode none
attr source dropPkByQueue
attr title "dropped packets, sum(packetBytes)"
scalar TestScenario7.switchA.eth[0].queuing.queues[4] rcvdPk:count 0
attr interpolationmode none
attr title "received packets, count"
scalar TestScenario7.switchA.eth[0].queuing.queues[4] rcvdPk:sum(packetBytes) 0
attr interpolationmode none
attr title "received packets, sum(packetBytes)"
statistic TestScenario7.switchA.eth[0].queuing.queues[4] queueingTime:histogram
field count 0
field mean -nan
field stddev -nan
field min -nan
field max -nan
field sum 0
field sqrsum 0
attr interpolationmode none
attr title "queueing time, histogram"
bin	-inf	0
bin	0	0
bin	1	0
scalar TestScenario7.switchA.eth[0].queuing.queues[4] queueLength:max 0
attr interpolationmode sample-hold
attr title "queue length, max"
scalar TestScenario7.switchA.eth[0].queuing.queues[4] queueLength:timeavg 0
attr interpolationmode sample-hold
attr title "queue length, timeavg"
scalar TestScenario7.switchA.eth[0].queuing.queues[5] dropPk:count 0
attr interpolationmode none
attr source dropPkByQueue
attr title "dropped packets, count"
scalar TestScenario7.switchA.eth[0].queuing.queues[5] dropPk:sum(packetBytes) 0
attr interpolationmode none
attr source dropPkByQueue
attr title "dropped packets, sum(packetBytes)"
scalar TestScenario7.switchA.eth[0].queuing.queues[5] rcvdPk:count 0
attr interpolationmode none
attr title "received packets, count"
scalar TestScenario7.switchA.eth[0].queuing.queues[5] rcvdPk:sum(packetBytes) 0
attr interpolationmode none
attr title "received packets, sum(packetBytes)"
statistic TestScenario7.switchA.eth[0].queuing.queues[5] queueingTime:histogram
field count 0
field mean -nan
field stddev -nan
field min -nan
field max -nan
field sum 0
field sqrsum 0
attr interpolationmode none
attr title "queueing time, histogram"
bin	-inf	0
bin	0	0
bin	1	0
scalar TestScenario7.switchA.eth[0].queuing.queues[5] queueLength:max 0
attr interpolationmode sample-hold
attr title "queue length, max"
scalar TestScenario7.switchA.eth[0].queuing.queues[5] queueLength:timeavg 0
attr interpolationmode sample-hold
attr title "queue length, timeavg"
scalar TestScenario7.switchA.eth[0].queuing.queues[6] dropPk:count 0
attr interpolationmode none
attr source dropPkByQueue
attr title "dropped packets, count"
scalar TestScenario7.switchA.eth[0].queuing.queues[6] dropPk:sum(packetBytes) 0
attr interpolationmode none
attr source dropPkByQueue
attr title "dropped packets, sum(packetBytes)"
scalar TestScenario7.switchA.eth[0].queuing.queues[6] rcvdPk:count 0
attr interpolationmode none
attr title "received packets, count"
scalar TestScenario7.switchA.eth[0].queuing.queues[6] rcvdPk:sum(packetBytes) 0
attr interpolationmode none
attr title "received packets, sum(packetBytes)"
statistic TestScenario7.switchA.eth[0].queuing.queues[6] queueingTime:histogram
field count 0
field mean -nan
field stddev -nan
field min -nan
field max -nan
field sum 0
field sqrsum 0
attr interpolationmode none
attr title "queueing time, histogram"
bin	-inf	0
bin	0	0
bin	1	0
scalar TestScenario7.switchA.eth[0].queuing.queues[6] queueLength:max 0
attr interpolationmode sample-hold
attr title "queue length, max"
scalar TestScenario7.switchA.eth[0].queuing.queues[6] queueLength:timeavg 0
attr interpolationmode sample-hold
attr title "queue length, timeavg"
scalar TestScenario7.switchA.eth[0].queuing.queues[7] dropPk:count 0
attr interpolationmode none
attr source dropPkByQueue
attr title "dropped packets, count"
scalar TestScenario7.switchA.eth[0].queuing.queues[7] dropPk:sum(packetBytes) 0
attr interpolationmode none
attr source dropPkByQueue
attr title "dropped packets, sum(packetBytes)"
scalar TestScenario7.switchA.eth[0].queuing.queues[7] rcvdPk:count 0
attr interpolationmode none
attr title "received packets, count"
scalar TestScenario7.switchA.eth[0].queuing.queues[7] rcvdPk:sum(packetBytes) 0
attr interpolationmode none
attr title "received packets, sum(packetBytes)"
statistic TestScenario7.switchA.eth[0].queuing.queues[7] queueingTime:histogram
field count 0
field mean -nan
field stddev -nan
field min -nan
field max -nan
field sum 0
field sqrsum 0
attr interpolationmode none
attr title "queueing time, histogram"
bin	-inf	0
bin	0	0
bin	1	0
scalar TestScenario7.switchA.eth[0].queuing.queues[7] queueLength:max 0
attr interpolationmode sample-hold
attr title "queue length, max"
scalar TestScenario7.switchA.eth[0].queuing.queues[7] queueLength:timeavg 0
attr interpolationmode sample-hold
attr title "queue length, timeavg"
scalar TestScenario7.switchA.eth[0].vlanEncapE decapPk:count 2
attr interpolationmode none
attr source decapPk
attr title "packets decapsulated, count"
scalar TestScenario7.switchA.eth[0].vlanEncapE decapPk:sum(packetBytes) 720
attr interpolationmode none
attr source decapPk
attr title "packets decapsulated, sum(packetBytes)"
scalar TestScenario7.switchA.eth[0].vlanEncapE encapPk:count 0
attr interpolationmode none
attr source encapPk
attr title "packets encapsulated, count"
scalar TestScenario7.switchA.eth[0].vlanEncapE encapPk:sum(packetBytes) 0
attr interpolationmode none
attr source encapPk
attr title "packets encapsulated, sum(packetBytes)"
scalar TestScenario7.switchA.eth[0].etherEncapE pauseSent:count 0
attr title "pause sent, count"
scalar TestScenario7.switchA.eth[0].etherEncapE pauseSent:sum 0
attr title "pause sent, sum"
scalar TestScenario7.switchA.eth[0].etherEncapE decapPk:count 2
attr interpolationmode none
attr source decapPk
attr title "packets decapsulated, count"
scalar TestScenario7.switchA.eth[0].etherEncapE decapPk:sum(packetBytes) 728
attr interpolationmode none
attr source decapPk
attr title "packets decapsulated, sum(packetBytes)"
scalar TestScenario7.switchA.eth[0].etherEncapE encapPk:count 0
attr interpolationmode none
attr source encapPk
attr title "packets encapsulated, count"
scalar TestScenario7.switchA.eth[0].etherEncapE encapPk:sum(packetBytes) 0
attr interpolationmode none
attr source encapPk
attr title "packets encapsulated, sum(packetBytes)"
scalar TestScenario7.switchA.eth[0].vlanEncapP decapPk:count 0
attr interpolationmode none
attr source decapPk
attr title "packets decapsulated, count"
scalar TestScenario7.switchA.eth[0].vlanEncapP decapPk:sum(packetBytes) 0
attr interpolationmode none
attr source decapPk
attr title "packets decapsulated, sum(packetBytes)"
scalar TestScenario7.switchA.eth[0].vlanEncapP encapPk:count 0
attr interpolationmode none
attr source encapPk
attr title "packets encapsulated, count"
scalar TestScenario7.switchA.eth[0].vlanEncapP encapPk:sum(packetBytes) 0
attr interpolationmode none
attr source encapPk
attr title "packets encapsulated, sum(packetBytes)"
scalar TestScenario7.switchA.eth[0].etherEncapP pauseSent:count 0
attr title "pause sent, count"
scalar TestScenario7.switchA.eth[0].etherEncapP pauseSent:sum 0
attr title "pause sent, sum"
scalar TestScenario7.switchA.eth[0].etherEncapP decapPk:count 0
attr interpolationmode none
attr source decapPk
attr title "packets decapsulated, count"
scalar TestScenario7.switchA.eth[0].etherEncapP decapPk:sum(packetBytes) 0
attr interpolationmode none
attr source decapPk
attr title "packets decapsulated, sum(packetBytes)"
scalar TestScenario7.switchA.eth[0].etherEncapP encapPk:count 0
attr interpolationmode none
attr source encapPk
attr title "packets encapsulated, count"
scalar TestScenario7.switchA.eth[0].etherEncapP encapPk:sum(packetBytes) 0
attr interpolationmode none
attr source encapPk
attr title "packets encapsulated, sum(packetBytes)"
scalar TestScenario7.switchA.eth[1].mac "simulated time" 8.2981e-06
scalar TestScenario7.switchA.eth[1].mac full-duplex 1
scalar TestScenario7.switchA.eth[1].mac "frames/sec sent" 0
scalar TestScenario7.switchA.eth[1].mac "frames/sec rcvd" 0
scalar TestScenario7.switchA.eth[1].mac "bits/sec sent" 0
scalar TestScenario7.switchA.eth[1].mac "bits/sec rcvd" 0
scalar TestScenario7.switchA.eth[1].mac "rx channel idle (%)" 100
scalar TestScenario7.switchA.eth[1].mac "rx channel utilization (%)" 0
statistic TestScenario7.switchA.eth[1].mac pMacDelay:histogram
field count 0
field mean -nan
field stddev -nan
field min -nan
field max -nan
field sum 0
field sqrsum 0
attr interpolationmode none
attr title "pMacDelay, histogram"
bin	-inf	0
bin	0	0
bin	1	0
statistic TestScenario7.switchA.eth[1].mac eMacDelay:histogram
field count 1
field mean 0
field stddev -nan
field min 0
field max 0
field sum 0
field sqrsum 0
attr interpolationmode none
attr title "eMacDelay, histogram"
bin	-inf	0
bin	-0.5	0
bin	-0.48	0
bin	-0.46	0
bin	-0.44	0
bin	-0.42	0
bin	-0.4	0
bin	-0.38	0
bin	-0.36	0
bin	-0.34	0
bin	-0.32	0
bin	-0.3	0
bin	-0.28	0
bin	-0.26	0
bin	-0.24	0
bin	-0.22	0
bin	-0.2	0
bin	-0.18	0
bin	-0.16	0
bin	-0.14	0
bin	-0.12	0
bin	-0.1	0
bin	-0.08	0
bin	-0.06	0
bin	-0.04	0
bin	-0.02	0
bin	0	1
bin	0.02	0
bin	0.04	0
bin	0.06	0
bin	0.08	0
bin	0.1	0
bin	0.12	0
bin	0.14	0
bin	0.16	0
bin	0.18	0
bin	0.2	0
bin	0.22	0
bin	0.24	0
bin	0.26	0
bin	0.28	0
bin	0.3	0
bin	0.32	0
bin	0.34	0
bin	0.36	0
bin	0.38	0
bin	0.4	0
bin	0.42	0
bin	0.44	0
bin	0.46	0
bin	0.48	0
bin	0.5	0
scalar TestScenario7.switchA.eth[1].mac expressFramesEnqueued:count 0
attr interpolationmode none
attr source expressFrameEnqueuedWhileSendingPreemptableSignal
attr title "express frames enqueued, count"
scalar TestScenario7.switchA.eth[1].mac mPacketsFull:count 0
attr interpolationmode none
attr source transmittedPreemptableFullSignal
attr title "mpackets full, count"
scalar TestScenario7.switchA.eth[1].mac mPacketsFinal:count 0
attr interpolationmode none
attr source transmittedPreemptableFinalSignal
attr title "mPackets final, count"
scalar TestScenario7.switchA.eth[1].mac mPacketsNonFinal:count 0
attr interpolationmode none
attr source transmittedPreemptableNonFinalSignal
attr title "mPackets non-final, count"
scalar TestScenario7.switchA.eth[1].mac mPackets:count 0
attr interpolationmode none
attr source transmittedPreemptableFramePartSignal
attr title "mPackets, count"
scalar TestScenario7.switchA.eth[1].mac preemptableFrames:count 0
attr interpolationmode none
attr source transmittedPreemptableFrameSignal
attr title "preemptableFrames, count"
scalar TestScenario7.switchA.eth[1].mac expressFrames:count 0
attr interpolationmode none
attr source transmittedExpressFrameSignal
attr title "expressFrames, count"
scalar TestScenario7.switchA.eth[1].mac preemptions:count 0
attr interpolationmode none
attr source preemptCurrentFrameSignal
attr title "preemptions, count"
scalar TestScenario7.switchA.eth[1].mac rxPausePkUnits:count 0
attr interpolationmode none
attr title "pause units received, count"
scalar TestScenario7.switchA.eth[1].mac rxPausePkUnits:sum 0
attr interpolationmode none
attr title "pause units received, sum"
scalar TestScenario7.switchA.eth[1].mac txPausePkUnits:count 0
attr interpolationmode none
attr title "pause units sent, count"
scalar TestScenario7.switchA.eth[1].mac txPausePkUnits:sum 0
attr interpolationmode none
attr title "pause units sent, sum"
scalar TestScenario7.switchA.eth[1].mac rxPkOk:count 0
attr interpolationmode none
attr source rxPkOk
attr title "packets received OK, count"
scalar TestScenario7.switchA.eth[1].mac rxPkOk:sum(packetBytes) 0
attr interpolationmode none
attr source rxPkOk
attr title "packets received OK, sum(packetBytes)"
scalar TestScenario7.switchA.eth[1].mac txPk:count 0
attr interpolationmode none
attr source packetSentToLower
attr title "packets transmitted, count"
scalar TestScenario7.switchA.eth[1].mac txPk:sum(packetBytes) 0
attr interpolationmode none
attr source packetSentToLower
attr title "packets transmitted, sum(packetBytes)"
scalar TestScenario7.switchA.eth[1].mac packetReceivedFromUpper:count 1
attr interpolationmode none
attr source packetReceivedFromUpper
attr title "packet bytes from higher layer, count"
scalar TestScenario7.switchA.eth[1].mac packetReceivedFromUpper:sum(packetBytes) 382
attr interpolationmode none
attr source packetReceivedFromUpper
attr title "packet bytes from higher layer, sum(packetBytes)"
scalar TestScenario7.switchA.eth[1].mac passedUpPk:count 0
attr interpolationmode none
attr source packetSentToUpper
attr title "packets passed to higher layer, count"
scalar TestScenario7.switchA.eth[1].mac passedUpPk:sum(packetBytes) 0
attr interpolationmode none
attr source packetSentToUpper
attr title "packets passed to higher layer, sum(packetBytes)"
scalar TestScenario7.switchA.eth[1].mac packetDropIncorrectlyReceived:count 0
attr interpolationmode none
attr source packetDropReasonIsIncorrectlyReceived(packetDropped)
attr title "packet drop: incorrectly received, count"
scalar TestScenario7.switchA.eth[1].mac packetDropIncorrectlyReceived:sum(packetBytes) 0
attr interpolationmode none
attr source packetDropReasonIsIncorrectlyReceived(packetDropped)
attr title "packet drop: incorrectly received, sum(packetBytes)"
scalar TestScenario7.switchA.eth[1].mac packetDropInterfaceDown:count 0
attr interpolationmode none
attr source packetDropReasonIsInterfaceDown(packetDropped)
attr title "packet drop: interface down, count"
scalar TestScenario7.switchA.eth[1].mac packetDropInterfaceDown:sum(packetBytes) 0
attr interpolationmode none
attr source packetDropReasonIsInterfaceDown(packetDropped)
attr title "packet drop: interface down, sum(packetBytes)"
scalar TestScenario7.switchA.eth[1].mac packetDropNotAddressedToUs:count 0
attr interpolationmode none
attr source packetDropReasonIsNotAddressedToUs(packetDropped)
attr title "packet drop: not addressed to us, count"
scalar TestScenario7.switchA.eth[1].mac packetDropNotAddressedToUs:sum(packetBytes) 0
attr interpolationmode none
attr source packetDropReasonIsNotAddressedToUs(packetDropped)
attr title "packet drop: not addressed to us, sum(packetBytes)"
scalar TestScenario7.switchA.eth[1].queuing.queues[0] dropPk:count 0
attr interpolationmode none
attr source dropPkByQueue
attr title "dropped packets, count"
scalar TestScenario7.switchA.eth[1].queuing.queues[0] dropPk:sum(packetBytes) 0
attr interpolationmode none
attr source dropPkByQueue
attr title "dropped packets, sum(packetBytes)"
scalar TestScenario7.switchA.eth[1].queuing.queues[0] rcvdPk:count 0
attr interpolationmode none
attr title "received packets, count"
scalar TestScenario7.switchA.eth[1].queuing.queues[0] rcvdPk:sum(packetBytes) 0
attr interpolationmode none
attr title "received packets, sum(packetBytes)"
statistic TestScenario7.switchA.eth[1].queuing.queues[0] queueingTime:histogram
field count 0
field mean -nan
field stddev -nan
field min -nan
field max -nan
field sum 0
field sqrsum 0
attr interpolationmode none
attr title "queueing time, histogram"
bin	-inf	0
bin	0	0
bin	1	0
scalar TestScenario7.switchA.eth[1].queuing.queues[0] queueLength:max 0
attr interpolationmode sample-hold
attr title "queue length, max"
scalar TestScenario7.switchA.eth[1].queuing.queues[0] queueLength:timeavg 0
attr interpolationmode sample-hold
attr title "queue length, timeavg"
scalar TestScenario7.switchA.eth[1].queuing.queues[1] dropPk:count 0
attr interpolationmode none
attr source dropPkByQueue
attr title "dropped packets, count"
scalar TestScenario7.switchA.eth[1].queuing.queues[1] dropPk:sum(packetBytes) 0
attr interpolationmode none
attr source dropPkByQueue
attr title "dropped packets, sum(packetBytes)"
scalar TestScenario7.switchA.eth[1].queuing.queues[1] rcvdPk:count 0
attr interpolationmode none
attr title "received packets, count"
scalar TestScenario7.switchA.eth[1].queuing.queues[1] rcvdPk:sum(packetBytes) 0
attr interpolationmode none
attr title "received packets, sum(packetBytes)"
statistic TestScenario7.switchA.eth[1].queuing.queues[1] queueingTime:histogram
field count 0
field mean -nan
field stddev -nan
field min -nan
field max -nan
field sum 0
field sqrsum 0
attr interpolationmode none
attr title "queueing time, histogram"
bin	-inf	0
bin	0	0
bin	1	0
scalar TestScenario7.switchA.eth[1].queuing.queues[1] queueLength:max 0
attr interpolationmode sample-hold
attr title "queue length, max"
scalar TestScenario7.switchA.eth[1].queuing.queues[1] queueLength:timeavg 0
attr interpolationmode sample-hold
attr title "queue length, timeavg"
scalar TestScenario7.switchA.eth[1].queuing.queues[2] dropPk:count 0
attr interpolationmode none
attr source dropPkByQueue
attr title "dropped packets, count"
scalar TestScenario7.switchA.eth[1].queuing.queues[2] dropPk:sum(packetBytes) 0
attr interpolationmode none
attr source dropPkByQueue
attr title "dropped packets, sum(packetBytes)"
scalar TestScenario7.switchA.eth[1].queuing.queues[2] rcvdPk:count 0
attr interpolationmode none
attr title "received packets, count"
scalar TestScenario7.switchA.eth[1].queuing.queues[2] rcvdPk:sum(packetBytes) 0
attr interpolationmode none
attr title "received packets, sum(packetBytes)"
statistic TestScenario7.switchA.eth[1].queuing.queues[2] queueingTime:histogram
field count 0
field mean -nan
field stddev -nan
field min -nan
field max -nan
field sum 0
field sqrsum 0
attr interpolationmode none
attr title "queueing time, histogram"
bin	-inf	0
bin	0	0
bin	1	0
scalar TestScenario7.switchA.eth[1].queuing.queues[2] queueLength:max 0
attr interpolationmode sample-hold
attr title "queue length, max"
scalar TestScenario7.switchA.eth[1].queuing.queues[2] queueLength:timeavg 0
attr interpolationmode sample-hold
attr title "queue length, timeavg"
scalar TestScenario7.switchA.eth[1].queuing.queues[3] dropPk:count 0
attr interpolationmode none
attr source dropPkByQueue
attr title "dropped packets, count"
scalar TestScenario7.switchA.eth[1].queuing.queues[3] dropPk:sum(packetBytes) 0
attr interpolationmode none
attr source dropPkByQueue
attr title "dropped packets, sum(packetBytes)"
scalar TestScenario7.switchA.eth[1].queuing.queues[3] rcvdPk:count 0
attr interpolationmode none
attr title "received packets, count"
scalar TestScenario7.switchA.eth[1].queuing.queues[3] rcvdPk:sum(packetBytes) 0
attr interpolationmode none
attr title "received packets, sum(packetBytes)"
statistic TestScenario7.switchA.eth[1].queuing.queues[3] queueingTime:histogram
field count 0
field mean -nan
field stddev -nan
field min -nan
field max -nan
field sum 0
field sqrsum 0
attr interpolationmode none
attr title "queueing time, histogram"
bin	-inf	0
bin	0	0
bin	1	0
scalar TestScenario7.switchA.eth[1].queuing.queues[3] queueLength:max 0
attr interpolationmode sample-hold
attr title "queue length, max"
scalar TestScenario7.switchA.eth[1].queuing.queues[3] queueLength:timeavg 0
attr interpolationmode sample-hold
attr title "queue length, timeavg"
scalar TestScenario7.switchA.eth[1].queuing.queues[4] dropPk:count 0
attr interpolationmode none
attr source dropPkByQueue
attr title "dropped packets, count"
scalar TestScenario7.switchA.eth[1].queuing.queues[4] dropPk:sum(packetBytes) 0
attr interpolationmode none
attr source dropPkByQueue
attr title "dropped packets, sum(packetBytes)"
scalar TestScenario7.switchA.eth[1].queuing.queues[4] rcvdPk:count 0
attr interpolationmode none
attr title "received packets, count"
scalar TestScenario7.switchA.eth[1].queuing.queues[4] rcvdPk:sum(packetBytes) 0
attr interpolationmode none
attr title "received packets, sum(packetBytes)"
statistic TestScenario7.switchA.eth[1].queuing.queues[4] queueingTime:histogram
field count 0
field mean -nan
field stddev -nan
field min -nan
field max -nan
field sum 0
field sqrsum 0
attr interpolationmode none
attr title "queueing time, histogram"
bin	-inf	0
bin	0	0
bin	1	0
scalar TestScenario7.switchA.eth[1].queuing.queues[4] queueLength:max 0
attr interpolationmode sample-hold
attr title "queue length, max"
scalar TestScenario7.switchA.eth[1].queuing.queues[4] queueLength:timeavg 0
attr interpolationmode sample-hold
attr title "queue length, timeavg"
scalar TestScenario7.switchA.eth[1].queuing.queues[5] dropPk:count 0
attr interpolationmode none
attr source dropPkByQueue
attr title "dropped packets, count"
scalar TestScenario7.switchA.eth[1].queuing.queues[5] dropPk:sum(packetBytes) 0
attr interpolationmode none
attr source dropPkByQueue
attr title "dropped packets, sum(packetBytes)"
scalar TestScenario7.switchA.eth[1].queuing.queues[5] rcvdPk:count 0
attr interpolationmode none
attr title "received packets, count"
scalar TestScenario7.switchA.eth[1].queuing.queues[5] rcvdPk:sum(packetBytes) 0
attr interpolationmode none
attr title "received packets, sum(packetBytes)"
statistic TestScenario7.switchA.eth[1].queuing.queues[5] queueingTime:histogram
field count 0
field mean -nan
field stddev -nan
field min -nan
field max -nan
field sum 0
field sqrsum 0
attr interpolationmode none
attr title "queueing time, histogram"
bin	-inf	0
bin	0	0
bin	1	0
scalar TestScenario7.switchA.eth[1].queuing.queues[5] queueLength:max 0
attr interpolationmode sample-hold
attr title "queue length, max"
scalar TestScenario7.switchA.eth[1].queuing.queues[5] queueLength:timeavg 0
attr interpolationmode sample-hold
attr title "queue length, timeavg"
scalar TestScenario7.switchA.eth[1].queuing.queues[6] dropPk:count 0
attr interpolationmode none
attr source dropPkByQueue
attr title "dropped packets, count"
scalar TestScenario7.switchA.eth[1].queuing.queues[6] dropPk:sum(packetBytes) 0
attr interpolationmode none
attr source dropPkByQueue
attr title "dropped packets, sum(packetBytes)"
scalar TestScenario7.switchA.eth[1].queuing.queues[6] rcvdPk:count 0
attr interpolationmode none
attr title "received packets, count"
scalar TestScenario7.switchA.eth[1].queuing.queues[6] rcvdPk:sum(packetBytes) 0
attr interpolationmode none
attr title "received packets, sum(packetBytes)"
statistic TestScenario7.switchA.eth[1].queuing.queues[6] queueingTime:histogram
field count 0
field mean -nan
field stddev -nan
field min -nan
field max -nan
field sum 0
field sqrsum 0
attr interpolationmode none
attr title "queueing time, histogram"
bin	-inf	0
bin	0	0
bin	1	0
scalar TestScenario7.switchA.eth[1].queuing.queues[6] queueLength:max 0
attr interpolationmode sample-hold
attr title "queue length, max"
scalar TestScenario7.switchA.eth[1].queuing.queues[6] queueLength:timeavg 0
attr interpolationmode sample-hold
attr title "queue length, timeavg"
scalar TestScenario7.switchA.eth[1].queuing.queues[7] dropPk:count 0
attr interpolationmode none
attr source dropPkByQueue
attr title "dropped packets, count"
scalar TestScenario7.switchA.eth[1].queuing.queues[7] dropPk:sum(packetBytes) 0
attr interpolationmode none
attr source dropPkByQueue
attr title "dropped packets, sum(packetBytes)"
scalar TestScenario7.switchA.eth[1].queuing.queues[7] rcvdPk:count 1
attr interpolationmode none
attr title "received packets, count"
scalar TestScenario7.switchA.eth[1].queuing.queues[7] rcvdPk:sum(packetBytes) 360
attr interpolationmode none
attr title "received packets, sum(packetBytes)"
statistic TestScenario7.switchA.eth[1].queuing.queues[7] queueingTime:histogram
field count 1
field mean 0
field stddev -nan
field min 0
field max 0
field sum 0
field sqrsum 0
attr interpolationmode none
attr title "queueing time, histogram"
bin	-inf	0
bin	-0.5	0
bin	-0.48	0
bin	-0.46	0
bin	-0.44	0
bin	-0.42	0
bin	-0.4	0
bin	-0.38	0
bin	-0.36	0
bin	-0.34	0
bin	-0.32	0
bin	-0.3	0
bin	-0.28	0
bin	-0.26	0
bin	-0.24	0
bin	-0.22	0
bin	-0.2	0
bin	-0.18	0
bin	-0.16	0
bin	-0.14	0
bin	-0.12	0
bin	-0.1	0
bin	-0.08	0
bin	-0.06	0
bin	-0.04	0
bin	-0.02	0
bin	0	1
bin	0.02	0
bin	0.04	0
bin	0.06	0
bin	0.08	0
bin	0.1	0
bin	0.12	0
bin	0.14	0
bin	0.16	0
bin	0.18	0
bin	0.2	0
bin	0.22	0
bin	0.24	0
bin	0.26	0
bin	0.28	0
bin	0.3	0
bin	0.32	0
bin	0.34	0
bin	0.36	0
bin	0.38	0
bin	0.4	0
bin	0.42	0
bin	0.44	0
bin	0.46	0
bin	0.48	0
bin	0.5	0
scalar TestScenario7.switchA.eth[1].queuing.queues[7] queueLength:max 1
attr interpolationmode sample-hold
attr title "queue length, max"
scalar TestScenario7.switchA.eth[1].queuing.queues[7] queueLength:timeavg 0
attr interpolationmode sample-hold
attr title "queue length, timeavg"
scalar TestScenario7.switchA.eth[1].vlanEncapE decapPk:count 0
attr interpolationmode none
attr source decapPk
attr title "packets decapsulated, count"
scalar TestScenario7.switchA.eth[1].vlanEncapE decapPk:sum(packetBytes) 0
attr interpolationmode none
attr source decapPk
attr title "packets decapsulated, sum(packetBytes)"
scalar TestScenario7.switchA.eth[1].vlanEncapE encapPk:count 1
attr interpolationmode none
attr source encapPk
attr title "packets encapsulated, count"
scalar TestScenario7.switchA.eth[1].vlanEncapE encapPk:sum(packetBytes) 364
attr interpolationmode none
attr source encapPk
attr title "packets encapsulated, sum(packetBytes)"
scalar TestScenario7.switchA.eth[1].etherEncapE pauseSent:count 0
attr title "pause sent, count"
scalar TestScenario7.switchA.eth[1].etherEncapE pauseSent:sum 0
attr title "pause sent, sum"
scalar TestScenario7.switchA.eth[1].etherEncapE decapPk:count 0
attr interpolationmode none
attr source decapPk
attr title "packets decapsulated, count"
scalar TestScenario7.switchA.eth[1].etherEncapE decapPk:sum(packetBytes) 0
attr interpolationmode none
attr source decapPk
attr title "packets decapsulated, sum(packetBytes)"
scalar TestScenario7.switchA.eth[1].etherEncapE encapPk:count 1
attr interpolationmode none
attr source encapPk
attr title "packets encapsulated, count"
scalar TestScenario7.switchA.eth[1].etherEncapE encapPk:sum(packetBytes) 364
attr interpolationmode none
attr source encapPk
attr title "packets encapsulated, sum(packetBytes)"
scalar TestScenario7.switchA.eth[1].vlanEncapP decapPk:count 0
attr interpolationmode none
attr source decapPk
attr title "packets decapsulated, count"
scalar TestScenario7.switchA.eth[1].vlanEncapP decapPk:sum(packetBytes) 0
attr interpolationmode none
attr source decapPk
attr title "packets decapsulated, sum(packetBytes)"
scalar TestScenario7.switchA.eth[1].vlanEncapP encapPk:count 0
attr interpolationmode none
attr source encapPk
attr title "packets encapsulated, count"
scalar TestScenario7.switchA.eth[1].vlanEncapP encapPk:sum(packetBytes) 0
attr interpolationmode none
attr source encapPk
attr title "packets encapsulated, sum(packetBytes)"
scalar TestScenario7.switchA.eth[1].etherEncapP pauseSent:count 0
attr title "pause sent, count"
scalar TestScenario7.switchA.eth[1].etherEncapP pauseSent:sum 0
attr title "pause sent, sum"
scalar TestScenario7.switchA.eth[1].etherEncapP decapPk:count 0
attr interpolationmode none
attr source decapPk
attr title "packets decapsulated, count"
scalar TestScenario7.switchA.eth[1].etherEncapP decapPk:sum(packetBytes) 0
attr interpolationmode none
attr source decapPk
attr title "packets decapsulated, sum(packetBytes)"
scalar TestScenario7.switchA.eth[1].etherEncapP encapPk:count 0
attr interpolationmode none
attr source encapPk
attr title "packets encapsulated, count"
scalar TestScenario7.switchA.eth[1].etherEncapP encapPk:sum(packetBytes) 0
attr interpolationmode none
attr source encapPk
attr title "packets encapsulated, sum(packetBytes)"
scalar TestScenario7.switchA.eth[2].mac "simulated time" 8.2981e-06
scalar TestScenario7.switchA.eth[2].mac full-duplex 1
scalar TestScenario7.switchA.eth[2].mac "frames/sec sent" 0
scalar TestScenario7.switchA.eth[2].mac "frames/sec rcvd" 0
scalar TestScenario7.switchA.eth[2].mac "bits/sec sent" 0
scalar TestScenario7.switchA.eth[2].mac "bits/sec rcvd" 0
scalar TestScenario7.switchA.eth[2].mac "rx channel idle (%)" 100
scalar TestScenario7.switchA.eth[2].mac "rx channel utilization (%)" 0
statistic TestScenario7.switchA.eth[2].mac pMacDelay:histogram
field count 0
field mean -nan
field stddev -nan
field min -nan
field max -nan
field sum 0
field sqrsum 0
attr interpolationmode none
attr title "pMacDelay, histogram"
bin	-inf	0
bin	0	0
bin	1	0
statistic TestScenario7.switchA.eth[2].mac eMacDelay:histogram
field count 1
field mean 0
field stddev -nan
field min 0
field max 0
field sum 0
field sqrsum 0
attr interpolationmode none
attr title "eMacDelay, histogram"
bin	-inf	0
bin	-0.5	0
bin	-0.48	0
bin	-0.46	0
bin	-0.44	0
bin	-0.42	0
bin	-0.4	0
bin	-0.38	0
bin	-0.36	0
bin	-0.34	0
bin	-0.32	0
bin	-0.3	0
bin	-0.28	0
bin	-0.26	0
bin	-0.24	0
bin	-0.22	0
bin	-0.2	0
bin	-0.18	0
bin	-0.16	0
bin	-0.14	0
bin	-0.12	0
bin	-0.1	0
bin	-0.08	0
bin	-0.06	0
bin	-0.04	0
bin	-0.02	0
bin	0	1
bin	0.02	0
bin	0.04	0
bin	0.06	0
bin	0.08	0
bin	0.1	0
bin	0.12	0
bin	0.14	0
bin	0.16	0
bin	0.18	0
bin	0.2	0
bin	0.22	0
bin	0.24	0
bin	0.26	0
bin	0.28	0
bin	0.3	0
bin	0.32	0
bin	0.34	0
bin	0.36	0
bin	0.38	0
bin	0.4	0
bin	0.42	0
bin	0.44	0
bin	0.46	0
bin	0.48	0
bin	0.5	0
scalar TestScenario7.switchA.eth[2].mac expressFramesEnqueued:count 0
attr interpolationmode none
attr source expressFrameEnqueuedWhileSendingPreemptableSignal
attr title "express frames enqueued, count"
scalar TestScenario7.switchA.eth[2].mac mPacketsFull:count 0
attr interpolationmode none
attr source transmittedPreemptableFullSignal
attr title "mpackets full, count"
scalar TestScenario7.switchA.eth[2].mac mPacketsFinal:count 0
attr interpolationmode none
attr source transmittedPreemptableFinalSignal
attr title "mPackets final, count"
scalar TestScenario7.switchA.eth[2].mac mPacketsNonFinal:count 0
attr interpolationmode none
attr source transmittedPreemptableNonFinalSignal
attr title "mPackets non-final, count"
scalar TestScenario7.switchA.eth[2].mac mPackets:count 0
attr interpolationmode none
attr source transmittedPreemptableFramePartSignal
attr title "mPackets, count"
scalar TestScenario7.switchA.eth[2].mac preemptableFrames:count 0
attr interpolationmode none
attr source transmittedPreemptableFrameSignal
attr title "preemptableFrames, count"
scalar TestScenario7.switchA.eth[2].mac expressFrames:count 0
attr interpolationmode none
attr source transmittedExpressFrameSignal
attr title "expressFrames, count"
scalar TestScenario7.switchA.eth[2].mac preemptions:count 0
attr interpolationmode none
attr source preemptCurrentFrameSignal
attr title "preemptions, count"
scalar TestScenario7.switchA.eth[2].mac rxPausePkUnits:count 0
attr interpolationmode none
attr title "pause units received, count"
scalar TestScenario7.switchA.eth[2].mac rxPausePkUnits:sum 0
attr interpolationmode none
attr title "pause units received, sum"
scalar TestScenario7.switchA.eth[2].mac txPausePkUnits:count 0
attr interpolationmode none
attr title "pause units sent, count"
scalar TestScenario7.switchA.eth[2].mac txPausePkUnits:sum 0
attr interpolationmode none
attr title "pause units sent, sum"
scalar TestScenario7.switchA.eth[2].mac rxPkOk:count 0
attr interpolationmode none
attr source rxPkOk
attr title "packets received OK, count"
scalar TestScenario7.switchA.eth[2].mac rxPkOk:sum(packetBytes) 0
attr interpolationmode none
attr source rxPkOk
attr title "packets received OK, sum(packetBytes)"
scalar TestScenario7.switchA.eth[2].mac txPk:count 0
attr interpolationmode none
attr source packetSentToLower
attr title "packets transmitted, count"
scalar TestScenario7.switchA.eth[2].mac txPk:sum(packetBytes) 0
attr interpolationmode none
attr source packetSentToLower
attr title "packets transmitted, sum(packetBytes)"
scalar TestScenario7.switchA.eth[2].mac packetReceivedFromUpper:count 1
attr interpolationmode none
attr source packetReceivedFromUpper
attr title "packet bytes from higher layer, count"
scalar TestScenario7.switchA.eth[2].mac packetReceivedFromUpper:sum(packetBytes) 382
attr interpolationmode none
attr source packetReceivedFromUpper
attr title "packet bytes from higher layer, sum(packetBytes)"
scalar TestScenario7.switchA.eth[2].mac passedUpPk:count 0
attr interpolationmode none
attr source packetSentToUpper
attr title "packets passed to higher layer, count"
scalar TestScenario7.switchA.eth[2].mac passedUpPk:sum(packetBytes) 0
attr interpolationmode none
attr source packetSentToUpper
attr title "packets passed to higher layer, sum(packetBytes)"
scalar TestScenario7.switchA.eth[2].mac packetDropIncorrectlyReceived:count 0
attr interpolationmode none
attr source packetDropReasonIsIncorrectlyReceived(packetDropped)
attr title "packet drop: incorrectly received, count"
scalar TestScenario7.switchA.eth[2].mac packetDropIncorrectlyReceived:sum(packetBytes) 0
attr interpolationmode none
attr source packetDropReasonIsIncorrectlyReceived(packetDropped)
attr title "packet drop: incorrectly received, sum(packetBytes)"
scalar TestScenario7.switchA.eth[2].mac packetDropInterfaceDown:count 0
attr interpolationmode none
attr source packetDropReasonIsInterfaceDown(packetDropped)
attr title "packet drop: interface down, count"
scalar TestScenario7.switchA.eth[2].mac packetDropInterfaceDown:sum(packetBytes) 0
attr interpolationmode none
attr source packetDropReasonIsInterfaceDown(packetDropped)
attr title "packet drop: interface down, sum(packetBytes)"
scalar TestScenario7.switchA.eth[2].mac packetDropNotAddressedToUs:count 0
attr interpolationmode none
attr source packetDropReasonIsNotAddressedToUs(packetDropped)
attr title "packet drop: not addressed to us, count"
scalar TestScenario7.switchA.eth[2].mac packetDropNotAddressedToUs:sum(packetBytes) 0
attr interpolationmode none
attr source packetDropReasonIsNotAddressedToUs(packetDropped)
attr title "packet drop: not addressed to us, sum(packetBytes)"
scalar TestScenario7.switchA.eth[2].queuing.queues[0] dropPk:count 0
attr interpolationmode none
attr source dropPkByQueue
attr title "dropped packets, count"
scalar TestScenario7.switchA.eth[2].queuing.queues[0] dropPk:sum(packetBytes) 0
attr interpolationmode none
attr source dropPkByQueue
attr title "dropped packets, sum(packetBytes)"
scalar TestScenario7.switchA.eth[2].queuing.queues[0] rcvdPk:count 0
attr interpolationmode none
attr title "received packets, count"
scalar TestScenario7.switchA.eth[2].queuing.queues[0] rcvdPk:sum(packetBytes) 0
attr interpolationmode none
attr title "received packets, sum(packetBytes)"
statistic TestScenario7.switchA.eth[2].queuing.queues[0] queueingTime:histogram
field count 0
field mean -nan
field stddev -nan
field min -nan
field max -nan
field sum 0
field sqrsum 0
attr interpolationmode none
attr title "queueing time, histogram"
bin	-inf	0
bin	0	0
bin	1	0
scalar TestScenario7.switchA.eth[2].queuing.queues[0] queueLength:max 0
attr interpolationmode sample-hold
attr title "queue length, max"
scalar TestScenario7.switchA.eth[2].queuing.queues[0] queueLength:timeavg 0
attr interpolationmode sample-hold
attr title "queue length, timeavg"
scalar TestScenario7.switchA.eth[2].queuing.queues[1] dropPk:count 0
attr interpolationmode none
attr source dropPkByQueue
attr title "dropped packets, count"
scalar TestScenario7.switchA.eth[2].queuing.queues[1] dropPk:sum(packetBytes) 0
attr interpolationmode none
attr source dropPkByQueue
attr title "dropped packets, sum(packetBytes)"
scalar TestScenario7.switchA.eth[2].queuing.queues[1] rcvdPk:count 0
attr interpolationmode none
attr title "received packets, count"
scalar TestScenario7.switchA.eth[2].queuing.queues[1] rcvdPk:sum(packetBytes) 0
attr interpolationmode none
attr title "received packets, sum(packetBytes)"
statistic TestScenario7.switchA.eth[2].queuing.queues[1] queueingTime:histogram
field count 0
field mean -nan
field stddev -nan
field min -nan
field max -nan
field sum 0
field sqrsum 0
attr interpolationmode none
attr title "queueing time, histogram"
bin	-inf	0
bin	0	0
bin	1	0
scalar TestScenario7.switchA.eth[2].queuing.queues[1] queueLength:max 0
attr interpolationmode sample-hold
attr title "queue length, max"
scalar TestScenario7.switchA.eth[2].queuing.queues[1] queueLength:timeavg 0
attr interpolationmode sample-hold
attr title "queue length, timeavg"
scalar TestScenario7.switchA.eth[2].queuing.queues[2] dropPk:count 0
attr interpolationmode none
attr source dropPkByQueue
attr title "dropped packets, count"
scalar TestScenario7.switchA.eth[2].queuing.queues[2] dropPk:sum(packetBytes) 0
attr interpolationmode none
attr source dropPkByQueue
attr title "dropped packets, sum(packetBytes)"
scalar TestScenario7.switchA.eth[2].queuing.queues[2] rcvdPk:count 0
attr interpolationmode none
attr title "received packets, count"
scalar TestScenario7.switchA.eth[2].queuing.queues[2] rcvdPk:sum(packetBytes) 0
attr interpolationmode none
attr title "received packets, sum(packetBytes)"
statistic TestScenario7.switchA.eth[2].queuing.queues[2] queueingTime:histogram
field count 0
field mean -nan
field stddev -nan
field min -nan
field max -nan
field sum 0
field sqrsum 0
attr interpolationmode none
attr title "queueing time, histogram"
bin	-inf	0
bin	0	0
bin	1	0
scalar TestScenario7.switchA.eth[2].queuing.queues[2] queueLength:max 0
attr interpolationmode sample-hold
attr title "queue length, max"
scalar TestScenario7.switchA.eth[2].queuing.queues[2] queueLength:timeavg 0
attr interpolationmode sample-hold
attr title "queue length, timeavg"
scalar TestScenario7.switchA.eth[2].queuing.queues[3] dropPk:count 0
attr interpolationmode none
attr source dropPkByQueue
attr title "dropped packets, count"
scalar TestScenario7.switchA.eth[2].queuing.queues[3] dropPk:sum(packetBytes) 0
attr interpolationmode none
attr source dropPkByQueue
attr title "dropped packets, sum(packetBytes)"
scalar TestScenario7.switchA.eth[2].queuing.queues[3] rcvdPk:count 0
attr interpolationmode none
attr title "received packets, count"
scalar TestScenario7.switchA.eth[2].queuing.queues[3] rcvdPk:sum(packetBytes) 0
attr interpolationmode none
attr title "received packets, sum(packetBytes)"
statistic TestScenario7.switchA.eth[2].queuing.queues[3] queueingTime:histogram
field count 0
field mean -nan
field stddev -nan
field min -nan
field max -nan
field sum 0
field sqrsum 0
attr interpolationmode none
attr title "queueing time, histogram"
bin	-inf	0
bin	0	0
bin	1	0
scalar TestScenario7.switchA.eth[2].queuing.queues[3] queueLength:max 0
attr interpolationmode sample-hold
attr title "queue length, max"
scalar TestScenario7.switchA.eth[2].queuing.queues[3] queueLength:timeavg 0
attr interpolationmode sample-hold
attr title "queue length, timeavg"
scalar TestScenario7.switchA.eth[2].queuing.queues[4] dropPk:count 0
attr interpolationmode none
attr source dropPkByQueue
attr title "dropped packets, count"
scalar TestScenario7.switchA.eth[2].queuing.queues[4] dropPk:sum(packetBytes) 0
attr interpolationmode none
attr source dropPkByQueue
attr title "dropped packets, sum(packetBytes)"
scalar TestScenario7.switchA.eth[2].queuing.queues[4] rcvdPk:count 0
attr interpolationmode none
attr title "received packets, count"
scalar TestScenario7.switchA.eth[2].queuing.queues[4] rcvdPk:sum(packetBytes) 0
attr interpolationmode none
attr title "received packets, sum(packetBytes)"
statistic TestScenario7.switchA.eth[2].queuing.queues[4] queueingTime:histogram
field count 0
field mean -nan
field stddev -nan
field min -nan
field max -nan
field sum 0
field sqrsum 0
attr interpolationmode none
attr title "queueing time, histogram"
bin	-inf	0
bin	0	0
bin	1	0
scalar TestScenario7.switchA.eth[2].queuing.queues[4] queueLength:max 0
attr interpolationmode sample-hold
attr title "queue length, max"
scalar TestScenario7.switchA.eth[2].queuing.queues[4] queueLength:timeavg 0
attr interpolationmode sample-hold
attr title "queue length, timeavg"
scalar TestScenario7.switchA.eth[2].queuing.queues[5] dropPk:count 0
attr interpolationmode none
attr source dropPkByQueue
attr title "dropped packets, count"
scalar TestScenario7.switchA.eth[2].queuing.queues[5] dropPk:sum(packetBytes) 0
attr interpolationmode none
attr source dropPkByQueue
attr title "dropped packets, sum(packetBytes)"
scalar TestScenario7.switchA.eth[2].queuing.queues[5] rcvdPk:count 0
attr interpolationmode none
attr title "received packets, count"
scalar TestScenario7.switchA.eth[2].queuing.queues[5] rcvdPk:sum(packetBytes) 0
attr interpolationmode none
attr title "received packets, sum(packetBytes)"
statistic TestScenario7.switchA.eth[2].queuing.queues[5] queueingTime:histogram
field count 0
field mean -nan
field stddev -nan
field min -nan
field max -nan
field sum 0
field sqrsum 0
attr interpolationmode none
attr title "queueing time, histogram"
bin	-inf	0
bin	0	0
bin	1	0
scalar TestScenario7.switchA.eth[2].queuing.queues[5] queueLength:max 0
attr interpolationmode sample-hold
attr title "queue length, max"
scalar TestScenario7.switchA.eth[2].queuing.queues[5] queueLength:timeavg 0
attr interpolationmode sample-hold
attr title "queue length, timeavg"
scalar TestScenario7.switchA.eth[2].queuing.queues[6] dropPk:count 0
attr interpolationmode none
attr source dropPkByQueue
attr title "dropped packets, count"
scalar TestScenario7.switchA.eth[2].queuing.queues[6] dropPk:sum(packetBytes) 0
attr interpolationmode none
attr source dropPkByQueue
attr title "dropped packets, sum(packetBytes)"
scalar TestScenario7.switchA.eth[2].queuing.queues[6] rcvdPk:count 0
attr interpolationmode none
attr title "received packets, count"
scalar TestScenario7.switchA.eth[2].queuing.queues[6] rcvdPk:sum(packetBytes) 0
attr interpolationmode none
attr title "received packets, sum(packetBytes)"
statistic TestScenario7.switchA.eth[2].queuing.queues[6] queueingTime:histogram
field count 0
field mean -nan
field stddev -nan
field min -nan
field max -nan
field sum 0
field sqrsum 0
attr interpolationmode none
attr title "queueing time, histogram"
bin	-inf	0
bin	0	0
bin	1	0
scalar TestScenario7.switchA.eth[2].queuing.queues[6] queueLength:max 0
attr interpolationmode sample-hold
attr title "queue length, max"
scalar TestScenario7.switchA.eth[2].queuing.queues[6] queueLength:timeavg 0
attr interpolationmode sample-hold
attr title "queue length, timeavg"
scalar TestScenario7.switchA.eth[2].queuing.queues[7] dropPk:count 0
attr interpolationmode none
attr source dropPkByQueue
attr title "dropped packets, count"
scalar TestScenario7.switchA.eth[2].queuing.queues[7] dropPk:sum(packetBytes) 0
attr interpolationmode none
attr source dropPkByQueue
attr title "dropped packets, sum(packetBytes)"
scalar TestScenario7.switchA.eth[2].queuing.queues[7] rcvdPk:count 1
attr interpolationmode none
attr title "received packets, count"
scalar TestScenario7.switchA.eth[2].queuing.queues[7] rcvdPk:sum(packetBytes) 360
attr interpolationmode none
attr title "received packets, sum(packetBytes)"
statistic TestScenario7.switchA.eth[2].queuing.queues[7] queueingTime:histogram
field count 1
field mean 0
field stddev -nan
field min 0
field max 0
field sum 0
field sqrsum 0
attr interpolationmode none
attr title "queueing time, histogram"
bin	-inf	0
bin	-0.5	0
bin	-0.48	0
bin	-0.46	0
bin	-0.44	0
bin	-0.42	0
bin	-0.4	0
bin	-0.38	0
bin	-0.36	0
bin	-0.34	0
bin	-0.32	0
bin	-0.3	0
bin	-0.28	0
bin	-0.26	0
bin	-0.24	0
bin	-0.22	0
bin	-0.2	0
bin	-0.18	0
bin	-0.16	0
bin	-0.14	0
bin	-0.12	0
bin	-0.1	0
bin	-0.08	0
bin	-0.06	0
bin	-0.04	0
bin	-0.02	0
bin	0	1
bin	0.02	0
bin	0.04	0
bin	0.06	0
bin	0.08	0
bin	0.1	0
bin	0.12	0
bin	0.14	0
bin	0.16	0
bin	0.18	0
bin	0.2	0
bin	0.22	0
bin	0.24	0
bin	0.26	0
bin	0.28	0
bin	0.3	0
bin	0.32	0
bin	0.34	0
bin	0.36	0
bin	0.38	0
bin	0.4	0
bin	0.42	0
bin	0.44	0
bin	0.46	0
bin	0.48	0
bin	0.5	0
scalar TestScenario7.switchA.eth[2].queuing.queues[7] queueLength:max 1
attr interpolationmode sample-hold
attr title "queue length, max"
scalar TestScenario7.switchA.eth[2].queuing.queues[7] queueLength:timeavg 0
attr interpolationmode sample-hold
attr title "queue length, timeavg"
scalar TestScenario7.switchA.eth[2].vlanEncapE decapPk:count 0
attr interpolationmode none
attr source decapPk
attr title "packets decapsulated, count"
scalar TestScenario7.switchA.eth[2].vlanEncapE decapPk:sum(packetBytes) 0
attr interpolationmode none
attr source decapPk
attr title "packets decapsulated, sum(packetBytes)"
scalar TestScenario7.switchA.eth[2].vlanEncapE encapPk:count 1
attr interpolationmode none
attr source encapPk
attr title "packets encapsulated, count"
scalar TestScenario7.switchA.eth[2].vlanEncapE encapPk:sum(packetBytes) 364
attr interpolationmode none
attr source encapPk
attr title "packets encapsulated, sum(packetBytes)"
scalar TestScenario7.switchA.eth[2].etherEncapE pauseSent:count 0
attr title "pause sent, count"
scalar TestScenario7.switchA.eth[2].etherEncapE pauseSent:sum 0
attr title "pause sent, sum"
scalar TestScenario7.switchA.eth[2].etherEncapE decapPk:count 0
attr interpolationmode none
attr source decapPk
attr title "packets decapsulated, count"
scalar TestScenario7.switchA.eth[2].etherEncapE decapPk:sum(packetBytes) 0
attr interpolationmode none
attr source decapPk
attr title "packets decapsulated, sum(packetBytes)"
scalar TestScenario7.switchA.eth[2].etherEncapE encapPk:count 1
attr interpolationmode none
attr source encapPk
attr title "packets encapsulated, count"
scalar TestScenario7.switchA.eth[2].etherEncapE encapPk:sum(packetBytes) 364
attr interpolationmode none
attr source encapPk
attr title "packets encapsulated, sum(packetBytes)"
scalar TestScenario7.switchA.eth[2].vlanEncapP decapPk:count 0
attr interpolationmode none
attr source decapPk
attr title "packets decapsulated, count"
scalar TestScenario7.switchA.eth[2].vlanEncapP decapPk:sum(packetBytes) 0
attr interpolationmode none
attr source decapPk
attr title "packets decapsulated, sum(packetBytes)"
scalar TestScenario7.switchA.eth[2].vlanEncapP encapPk:count 0
attr interpolationmode none
attr source encapPk
attr title "packets encapsulated, count"
scalar TestScenario7.switchA.eth[2].vlanEncapP encapPk:sum(packetBytes) 0
attr interpolationmode none
attr source encapPk
attr title "packets encapsulated, sum(packetBytes)"
scalar TestScenario7.switchA.eth[2].etherEncapP pauseSent:count 0
attr title "pause sent, count"
scalar TestScenario7.switchA.eth[2].etherEncapP pauseSent:sum 0
attr title "pause sent, sum"
scalar TestScenario7.switchA.eth[2].etherEncapP decapPk:count 0
attr interpolationmode none
attr source decapPk
attr title "packets decapsulated, count"
scalar TestScenario7.switchA.eth[2].etherEncapP decapPk:sum(packetBytes) 0
attr interpolationmode none
attr source decapPk
attr title "packets decapsulated, sum(packetBytes)"
scalar TestScenario7.switchA.eth[2].etherEncapP encapPk:count 0
attr interpolationmode none
attr source encapPk
attr title "packets encapsulated, count"
scalar TestScenario7.switchA.eth[2].etherEncapP encapPk:sum(packetBytes) 0
attr interpolationmode none
attr source encapPk
attr title "packets encapsulated, sum(packetBytes)"
statistic TestScenario7.switchA.processingDelay[0] delay:stats
field count 2
field mean 5e-06
field stddev 0
field min 5e-06
field max 5e-06
field sum 1e-05
field sqrsum 5e-11
attr interpolationmode none
attr source delay
attr title "packet delay, stats"
scalar TestScenario7.switchA.processingDelay[0] packetReceived:count 2
attr interpolationmode none
attr source packetReceived
attr title "packets received, count"
scalar TestScenario7.switchA.processingDelay[0] packetReceived:sum(packetBytes) 708
attr interpolationmode none
attr source packetReceived
attr title "packets received, sum(packetBytes)"
scalar TestScenario7.switchA.processingDelay[0] packetSent:count 1
attr interpolationmode none
attr source packetSent
attr title "packets sent, count"
scalar TestScenario7.switchA.processingDelay[0] packetSent:sum(packetBytes) 354
attr interpolationmode none
attr source packetSent
attr title "packets sent, sum(packetBytes)"
statistic TestScenario7.switchA.processingDelay[1] delay:stats
field count 0
field mean -nan
field stddev -nan
field min -nan
field max -nan
field sum 0
field sqrsum 0
attr interpolationmode none
attr source delay
attr title "packet delay, stats"
scalar TestScenario7.switchA.processingDelay[1] packetReceived:count 0
attr interpolationmode none
attr source packetReceived
attr title "packets received, count"
scalar TestScenario7.switchA.processingDelay[1] packetReceived:sum(packetBytes) 0
attr interpolationmode none
attr source packetReceived
attr title "packets received, sum(packetBytes)"
scalar TestScenario7.switchA.processingDelay[1] packetSent:count 0
attr interpolationmode none
attr source packetSent
attr title "packets sent, count"
scalar TestScenario7.switchA.processingDelay[1] packetSent:sum(packetBytes) 0
attr interpolationmode none
attr source packetSent
attr title "packets sent, sum(packetBytes)"
statistic TestScenario7.switchA.processingDelay[2] delay:stats
field count 0
field mean -nan
field stddev -nan
field min -nan
field max -nan
field sum 0
field sqrsum 0
attr interpolationmode none
attr source delay
attr title "packet delay, stats"
scalar TestScenario7.switchA.processingDelay[2] packetReceived:count 0
attr interpolationmode none
attr source packetReceived
attr title "packets received, count"
scalar TestScenario7.switchA.processingDelay[2] packetReceived:sum(packetBytes) 0
attr interpolationmode none
attr source packetReceived
attr title "packets received, sum(packetBytes)"
scalar TestScenario7.switchA.processingDelay[2] packetSent:count 0
attr interpolationmode none
attr source packetSent
attr title "packets sent, count"
scalar TestScenario7.switchA.processingDelay[2] packetSent:sum(packetBytes) 0
attr interpolationmode none
attr source packetSent
attr title "packets sent, sum(packetBytes)"
scalar TestScenario7.switchB.eth[0].mac "simulated time" 8.2981e-06
scalar TestScenario7.switchB.eth[0].mac full-duplex 1
scalar TestScenario7.switchB.eth[0].mac "frames/sec sent" 0
scalar TestScenario7.switchB.eth[0].mac "frames/sec rcvd" 0
scalar TestScenario7.switchB.eth[0].mac "bits/sec sent" 0
scalar TestScenario7.switchB.eth[0].mac "bits/sec rcvd" 0
scalar TestScenario7.switchB.eth[0].mac "rx channel idle (%)" 100
scalar TestScenario7.switchB.eth[0].mac "rx channel utilization (%)" 0
statistic TestScenario7.switchB.eth[0].mac pMacDelay:histogram
field count 0
field mean -nan
field stddev -nan
field min -nan
field max -nan
field sum 0
field sqrsum 0
attr interpolationmode none
attr title "pMacDelay, histogram"
bin	-inf	0
bin	0	0
bin	1	0
statistic TestScenario7.switchB.eth[0].mac eMacDelay:histogram
field count 0
field mean -nan
field stddev -nan
field min -nan
field max -nan
field sum 0
field sqrsum 0
attr interpolationmode none
attr title "eMacDelay, histogram"
bin	-inf	0
bin	0	0
bin	1	0
scalar TestScenario7.switchB.eth[0].mac expressFramesEnqueued:count 0
attr interpolationmode none
attr source expressFrameEnqueuedWhileSendingPreemptableSignal
attr title "express frames enqueued, count"
scalar TestScenario7.switchB.eth[0].mac mPacketsFull:count 0
attr interpolationmode none
attr source transmittedPreemptableFullSignal
attr title "mpackets full, count"
scalar TestScenario7.switchB.eth[0].mac mPacketsFinal:count 0
attr interpolationmode none
attr source transmittedPreemptableFinalSignal
attr title "mPackets final, count"
scalar TestScenario7.switchB.eth[0].mac mPacketsNonFinal:count 0
attr interpolationmode none
attr source transmittedPreemptableNonFinalSignal
attr title "mPackets non-final, count"
scalar TestScenario7.switchB.eth[0].mac mPackets:count 0
attr interpolationmode none
attr source transmittedPreemptableFramePartSignal
attr title "mPackets, count"
scalar TestScenario7.switchB.eth[0].mac preemptableFrames:count 0
attr interpolationmode none
attr source transmittedPreemptableFrameSignal
attr title "preemptableFrames, count"
scalar TestScenario7.switchB.eth[0].mac expressFrames:count 0
attr interpolationmode none
attr source transmittedExpressFrameSignal
attr title "expressFrames, count"
scalar TestScenario7.switchB.eth[0].mac preemptions:count 0
attr interpolationmode none
attr source preemptCurrentFrameSignal
attr title "preemptions, count"
scalar TestScenario7.switchB.eth[0].mac rxPausePkUnits:count 0
attr interpolationmode none
attr title "pause units received, count"
scalar TestScenario7.switchB.eth[0].mac rxPausePkUnits:sum 0
attr interpolationmode none
attr title "pause units received, sum"
scalar TestScenario7.switchB.eth[0].mac txPausePkUnits:count 0
attr interpolationmode none
attr title "pause units sent, count"
scalar TestScenario7.switchB.eth[0].mac txPausePkUnits:sum 0
attr interpolationmode none
attr title "pause units sent, sum"
scalar TestScenario7.switchB.eth[0].mac rxPkOk:count 0
attr interpolationmode none
attr source rxPkOk
attr title "packets received OK, count"
scalar TestScenario7.switchB.eth[0].mac rxPkOk:sum(packetBytes) 0
attr interpolationmode none
attr source rxPkOk
attr title "packets received OK, sum(packetBytes)"
scalar TestScenario7.switchB.eth[0].mac txPk:count 0
attr interpolationmode none
attr source packetSentToLower
attr title "packets transmitted, count"
scalar TestScenario7.switchB.eth[0].mac txPk:sum(packetBytes) 0
attr interpolationmode none
attr source packetSentToLower
attr title "packets transmitted, sum(packetBytes)"
scalar TestScenario7.switchB.eth[0].mac packetReceivedFromUpper:count 0
attr interpolationmode none
attr source packetReceivedFromUpper
attr title "packet bytes from higher layer, count"
scalar TestScenario7.switchB.eth[0].mac packetReceivedFromUpper:sum(packetBytes) 0
attr interpolationmode none
attr source packetReceivedFromUpper
attr title "packet bytes from higher layer, sum(packetBytes)"
scalar TestScenario7.switchB.eth[0].mac passedUpPk:count 0
attr interpolationmode none
attr source packetSentToUpper
attr title "packets passed to higher layer, count"
scalar TestScenario7.switchB.eth[0].mac passedUpPk:sum(packetBytes) 0
attr interpolationmode none
attr source packetSentToUpper
attr title "packets passed to higher layer, sum(packetBytes)"
scalar TestScenario7.switchB.eth[0].mac packetDropIncorrectlyReceived:count 0
attr interpolationmode none
attr source packetDropReasonIsIncorrectlyReceived(packetDropped)
attr title "packet drop: incorrectly received, count"
scalar TestScenario7.switchB.eth[0].mac packetDropIncorrectlyReceived:sum(packetBytes) 0
attr interpolationmode none
attr source packetDropReasonIsIncorrectlyReceived(packetDropped)
attr title "packet drop: incorrectly received, sum(packetBytes)"
scalar TestScenario7.switchB.eth[0].mac packetDropInterfaceDown:count 0
attr interpolationmode none
attr source packetDropReasonIsInterfaceDown(packetDropped)
attr title "packet drop: interface down, count"
scalar TestScenario7.switchB.eth[0].mac packetDropInterfaceDown:sum(packetBytes) 0
attr interpolationmode none
attr source packetDropReasonIsInterfaceDown(packetDropped)
attr title "packet drop: interface down, sum(packetBytes)"
scalar TestScenario7.switchB.eth[0].mac packetDropNotAddressedToUs:count 0
attr interpolationmode none
attr source packetDropReasonIsNotAddressedToUs(packetDropped)
attr title "packet drop: not addressed to us, count"
scalar TestScenario7.switchB.eth[0].mac packetDropNotAddressedToUs:sum(packetBytes) 0
attr interpolationmode none
attr source packetDropReasonIsNotAddressedToUs(packetDropped)
attr title "packet drop: not addressed to us, sum(packetBytes)"
scalar TestScenario7.switchB.eth[0].queuing.queues[0] dropPk:count 0
attr interpolationmode none
attr source dropPkByQueue
attr title "dropped packets, count"
scalar TestScenario7.switchB.eth[0].queuing.queues[0] dropPk:sum(packetBytes) 0
attr interpolationmode none
attr source dropPkByQueue
attr title "dropped packets, sum(packetBytes)"
scalar TestScenario7.switchB.eth[0].queuing.queues[0] rcvdPk:count 0
attr interpolationmode none
attr title "received packets, count"
scalar TestScenario7.switchB.eth[0].queuing.queues[0] rcvdPk:sum(packetBytes) 0
attr interpolationmode none
attr title "received packets, sum(packetBytes)"
statistic TestScenario7.switchB.eth[0].queuing.queues[0] queueingTime:histogram
field count 0
field mean -nan
field stddev -nan
field min -nan
field max -nan
field sum 0
field sqrsum 0
attr interpolationmode none
attr title "queueing time, histogram"
bin	-inf	0
bin	0	0
bin	1	0
scalar TestScenario7.switchB.eth[0].queuing.queues[0] queueLength:max 0
attr interpolationmode sample-hold
attr title "queue length, max"
scalar TestScenario7.switchB.eth[0].queuing.queues[0] queueLength:timeavg 0
attr interpolationmode sample-hold
attr title "queue length, timeavg"
scalar TestScenario7.switchB.eth[0].queuing.queues[1] dropPk:count 0
attr interpolationmode none
attr source dropPkByQueue
attr title "dropped packets, count"
scalar TestScenario7.switchB.eth[0].queuing.queues[1] dropPk:sum(packetBytes) 0
attr interpolationmode none
attr source dropPkByQueue
attr title "dropped packets, sum(packetBytes)"
scalar TestScenario7.switchB.eth[0].queuing.queues[1] rcvdPk:count 0
attr interpolationmode none
attr title "received packets, count"
scalar TestScenario7.switchB.eth[0].queuing.queues[1] rcvdPk:sum(packetBytes) 0
attr interpolationmode none
attr title "received packets, sum(packetBytes)"
statistic TestScenario7.switchB.eth[0].queuing.queues[1] queueingTime:histogram
field count 0
field mean -nan
field stddev -nan
field min -nan
field max -nan
field sum 0
field sqrsum 0
attr interpolationmode none
attr title "queueing time, histogram"
bin	-inf	0
bin	0	0
bin	1	0
scalar TestScenario7.switchB.eth[0].queuing.queues[1] queueLength:max 0
attr interpolationmode sample-hold
attr title "queue length, max"
scalar TestScenario7.switchB.eth[0].queuing.queues[1] queueLength:timeavg 0
attr interpolationmode sample-hold
attr title "queue length, timeavg"
scalar TestScenario7.switchB.eth[0].queuing.queues[2] dropPk:count 0
attr interpolationmode none
attr source dropPkByQueue
attr title "dropped packets, count"
scalar TestScenario7.switchB.eth[0].queuing.queues[2] dropPk:sum(packetBytes) 0
attr interpolationmode none
attr source dropPkByQueue
attr title "dropped packets, sum(packetBytes)"
scalar TestScenario7.switchB.eth[0].queuing.queues[2] rcvdPk:count 0
attr interpolationmode none
attr title "received packets, count"
scalar TestScenario7.switchB.eth[0].queuing.queues[2] rcvdPk:sum(packetBytes) 0
attr interpolationmode none
attr title "received packets, sum(packetBytes)"
statistic TestScenario7.switchB.eth[0].queuing.queues[2] queueingTime:histogram
field count 0
field mean -nan
field stddev -nan
field min -nan
field max -nan
field sum 0
field sqrsum 0
attr interpolationmode none
attr title "queueing time, histogram"
bin	-inf	0
bin	0	0
bin	1	0
scalar TestScenario7.switchB.eth[0].queuing.queues[2] queueLength:max 0
attr interpolationmode sample-hold
attr title "queue length, max"
scalar TestScenario7.switchB.eth[0].queuing.queues[2] queueLength:timeavg 0
attr interpolationmode sample-hold
attr title "queue length, timeavg"
scalar TestScenario7.switchB.eth[0].queuing.queues[3] dropPk:count 0
attr interpolationmode none
attr source dropPkByQueue
attr title "dropped packets, count"
scalar TestScenario7.switchB.eth[0].queuing.queues[3] dropPk:sum(packetBytes) 0
attr interpolationmode none
attr source dropPkByQueue
attr title "dropped packets, sum(packetBytes)"
scalar TestScenario7.switchB.eth[0].queuing.queues[3] rcvdPk:count 0
attr interpolationmode none
attr title "received packets, count"
scalar TestScenario7.switchB.eth[0].queuing.queues[3] rcvdPk:sum(packetBytes) 0
attr interpolationmode none
attr title "received packets, sum(packetBytes)"
statistic TestScenario7.switchB.eth[0].queuing.queues[3] queueingTime:histogram
field count 0
field mean -nan
field stddev -nan
field min -nan
field max -nan
field sum 0
field sqrsum 0
attr interpolationmode none
attr title "queueing time, histogram"
bin	-inf	0
bin	0	0
bin	1	0
scalar TestScenario7.switchB.eth[0].queuing.queues[3] queueLength:max 0
attr interpolationmode sample-hold
attr title "queue length, max"
scalar TestScenario7.switchB.eth[0].queuing.queues[3] queueLength:timeavg 0
attr interpolationmode sample-hold
attr title "queue length, timeavg"
scalar TestScenario7.switchB.eth[0].queuing.queues[4] dropPk:count 0
attr interpolationmode none
attr source dropPkByQueue
attr title "dropped packets, count"
scalar TestScenario7.switchB.eth[0].queuing.queues[4] dropPk:sum(packetBytes) 0
attr interpolationmode none
attr source dropPkByQueue
attr title "dropped packets, sum(packetBytes)"
scalar TestScenario7.switchB.eth[0].queuing.queues[4] rcvdPk:count 0
attr interpolationmode none
attr title "received packets, count"
scalar TestScenario7.switchB.eth[0].queuing.queues[4] rcvdPk:sum(packetBytes) 0
attr interpolationmode none
attr title "received packets, sum(packetBytes)"
statistic TestScenario7.switchB.eth[0].queuing.queues[4] queueingTime:histogram
field count 0
field mean -nan
field stddev -nan
field min -nan
field max -nan
field sum 0
field sqrsum 0
attr interpolationmode none
attr title "queueing time, histogram"
bin	-inf	0
bin	0	0
bin	1	0
scalar TestScenario7.switchB.eth[0].queuing.queues[4] queueLength:max 0
attr interpolationmode sample-hold
attr title "queue length, max"
scalar TestScenario7.switchB.eth[0].queuing.queues[4] queueLength:timeavg 0
attr interpolationmode sample-hold
attr title "queue length, timeavg"
scalar TestScenario7.switchB.eth[0].queuing.queues[5] dropPk:count 0
attr interpolationmode none
attr source dropPkByQueue
attr title "dropped packets, count"
scalar TestScenario7.switchB.eth[0].queuing.queues[5] dropPk:sum(packetBytes) 0
attr interpolationmode none
attr source dropPkByQueue
attr title "dropped packets, sum(packetBytes)"
scalar TestScenario7.switchB.eth[0].queuing.queues[5] rcvdPk:count 0
attr interpolationmode none
attr title "received packets, count"
scalar TestScenario7.switchB.eth[0].queuing.queues[5] rcvdPk:sum(packetBytes) 0
attr interpolationmode none
attr title "received packets, sum(packetBytes)"
statistic TestScenario7.switchB.eth[0].queuing.queues[5] queueingTime:histogram
field count 0
field mean -nan
field stddev -nan
field min -nan
field max -nan
field sum 0
field sqrsum 0
attr interpolationmode none
attr title "queueing time, histogram"
bin	-inf	0
bin	0	0
bin	1	0
scalar TestScenario7.switchB.eth[0].queuing.queues[5] queueLength:max 0
attr interpolationmode sample-hold
attr title "queue length, max"
scalar TestScenario7.switchB.eth[0].queuing.queues[5] queueLength:timeavg 0
attr interpolationmode sample-hold
attr title "queue length, timeavg"
scalar TestScenario7.switchB.eth[0].queuing.queues[6] dropPk:count 0
attr interpolationmode none
attr source dropPkByQueue
attr title "dropped packets, count"
scalar TestScenario7.switchB.eth[0].queuing.queues[6] dropPk:sum(packetBytes) 0
attr interpolationmode none
attr source dropPkByQueue
attr title "dropped packets, sum(packetBytes)"
scalar TestScenario7.switchB.eth[0].queuing.queues[6] rcvdPk:count 0
attr interpolationmode none
attr title "received packets, count"
scalar TestScenario7.switchB.eth[0].queuing.queues[6] rcvdPk:sum(packetBytes) 0
attr interpolationmode none
attr title "received packets, sum(packetBytes)"
statistic TestScenario7.switchB.eth[0].queuing.queues[6] queueingTime:histogram
field count 0
field mean -nan
field stddev -nan
field min -nan
field max -nan
field sum 0
field sqrsum 0
attr interpolationmode none
attr title "queueing time, histogram"
bin	-inf	0
bin	0	0
bin	1	0
scalar TestScenario7.switchB.eth[0].queuing.queues[6] queueLength:max 0
attr interpolationmode sample-hold
attr title "queue length, max"
scalar TestScenario7.switchB.eth[0].queuing.queues[6] queueLength:timeavg 0
attr interpolationmode sample-hold
attr title "queue length, timeavg"
scalar TestScenario7.switchB.eth[0].queuing.queues[7] dropPk:count 0
attr interpolationmode none
attr source dropPkByQueue
attr title "dropped packets, count"
scalar TestScenario7.switchB.eth[0].queuing.queues[7] dropPk:sum(packetBytes) 0
attr interpolationmode none
attr source dropPkByQueue
attr title "dropped packets, sum(packetBytes)"
scalar TestScenario7.switchB.eth[0].queuing.queues[7] rcvdPk:count 0
attr interpolationmode none
attr title "received packets, count"
scalar TestScenario7.switchB.eth[0].queuing.queues[7] rcvdPk:sum(packetBytes) 0
attr interpolationmode none
attr title "received packets, sum(packetBytes)"
statistic TestScenario7.switchB.eth[0].queuing.queues[7] queueingTime:histogram
field count 0
field mean -nan
field stddev -nan
field min -nan
field max -nan
field sum 0
field sqrsum 0
attr interpolationmode none
attr title "queueing time, histogram"
bin	-inf	0
bin	0	0
bin	1	0
scalar TestScenario7.switchB.eth[0].queuing.queues[7] queueLength:max 0
attr interpolationmode sample-hold
attr title "queue length, max"
scalar TestScenario7.switchB.eth[0].queuing.queues[7] queueLength:timeavg 0
attr interpolationmode sample-hold
attr title "queue length, timeavg"
scalar TestScenario7.switchB.eth[0].vlanEncapE decapPk:count 0
attr interpolationmode none
attr source decapPk
attr title "packets decapsulated, count"
scalar TestScenario7.switchB.eth[0].vlanEncapE decapPk:sum(packetBytes) 0
attr interpolationmode none
attr source decapPk
attr title "packets decapsulated, sum(packetBytes)"
scalar TestScenario7.switchB.eth[0].vlanEncapE encapPk:count 0
attr interpolationmode none
attr source encapPk
attr title "packets encapsulated, count"
scalar TestScenario7.switchB.eth[0].vlanEncapE encapPk:sum(packetBytes) 0
attr interpolationmode none
attr source encapPk
attr title "packets encapsulated, sum(packetBytes)"
scalar TestScenario7.switchB.eth[0].etherEncapE pauseSent:count 0
attr title "pause sent, count"
scalar TestScenario7.switchB.eth[0].etherEncapE pauseSent:sum 0
attr title "pause sent, sum"
scalar TestScenario7.switchB.eth[0].etherEncapE decapPk:count 0
attr interpolationmode none
attr source decapPk
attr title "packets decapsulated, count"
scalar TestScenario7.switchB.eth[0].etherEncapE decapPk:sum(packetBytes) 0
attr interpolationmode none
attr source decapPk
attr title "packets decapsulated, sum(packetBytes)"
scalar TestScenario7.switchB.eth[0].etherEncapE encapPk:count 0
attr interpolationmode none
attr source encapPk
attr title "packets encapsulated, count"
scalar TestScenario7.switchB.eth[0].etherEncapE encapPk:sum(packetBytes) 0
attr interpolationmode none
attr source encapPk
attr title "packets encapsulated, sum(packetBytes)"
scalar TestScenario7.switchB.eth[0].vlanEncapP decapPk:count 0
attr interpolationmode none
attr source decapPk
attr title "packets decapsulated, count"
scalar TestScenario7.switchB.eth[0].vlanEncapP decapPk:sum(packetBytes) 0
attr interpolationmode none
attr source decapPk
attr title "packets decapsulated, sum(packetBytes)"
scalar TestScenario7.switchB.eth[0].vlanEncapP encapPk:count 0
attr interpolationmode none
attr source encapPk
attr title "packets encapsulated, count"
scalar TestScenario7.switchB.eth[0].vlanEncapP encapPk:sum(packetBytes) 0
attr interpolationmode none
attr source encapPk
attr title "packets encapsulated, sum(packetBytes)"
scalar TestScenario7.switchB.eth[0].etherEncapP pauseSent:count 0
attr title "pause sent, count"
scalar TestScenario7.switchB.eth[0].etherEncapP pauseSent:sum 0
attr title "pause sent, sum"
[...]
attr title "pause sent, sum"
scalar TestScenario7.roboticArm1.eth.etherEncapP decapPk:count 0
attr interpolationmode none
attr source decapPk
attr title "packets decapsulated, count"
scalar TestScenario7.roboticArm1.eth.etherEncapP decapPk:sum(packetBytes) 0
attr interpolationmode none
attr source decapPk
attr title "packets decapsulated, sum(packetBytes)"
scalar TestScenario7.roboticArm1.eth.etherEncapP encapPk:count 0
attr interpolationmode none
attr source encapPk
attr title "packets encapsulated, count"
scalar TestScenario7.roboticArm1.eth.etherEncapP encapPk:sum(packetBytes) 0
attr interpolationmode none
attr source encapPk
attr title "packets encapsulated, sum(packetBytes)"
scalar TestScenario7.roboticArm2.trafGenApp packetReceived:count 0
attr interpolationmode none
attr source packetReceived
attr title "packets received, count"
scalar TestScenario7.roboticArm2.trafGenApp packetReceived:sum(packetBytes) 0
attr interpolationmode none
attr source packetReceived
attr title "packets received, sum(packetBytes)"
statistic TestScenario7.roboticArm2.trafGenApp endToEndDelay:histogram
field count 0
field mean -nan
field stddev -nan
field min -nan
field max -nan
field sum 0
field sqrsum 0
attr interpolationmode none
attr source dataAge(packetReceived)
attr title "end-to-end delay, histogram"
attr unit s
bin	-inf	0
bin	0	0
bin	1	0
scalar TestScenario7.roboticArm2.trafGenApp packetSent:count 0
attr interpolationmode none
attr source packetSent
attr title "packets sent, count"
scalar TestScenario7.roboticArm2.trafGenApp packetSent:sum(packetBytes) 0
attr interpolationmode none
attr source packetSent
attr title "packets sent, sum(packetBytes)"
scalar TestScenario7.roboticArm2.eth.mac "simulated time" 8.2981e-06
scalar TestScenario7.roboticArm2.eth.mac full-duplex 1
scalar TestScenario7.roboticArm2.eth.mac "frames/sec sent" 0
scalar TestScenario7.roboticArm2.eth.mac "frames/sec rcvd" 0
scalar TestScenario7.roboticArm2.eth.mac "bits/sec sent" 0
scalar TestScenario7.roboticArm2.eth.mac "bits/sec rcvd" 0
scalar TestScenario7.roboticArm2.eth.mac "rx channel idle (%)" 100
scalar TestScenario7.roboticArm2.eth.mac "rx channel utilization (%)" 0
statistic TestScenario7.roboticArm2.eth.mac pMacDelay:histogram
field count 0
field mean -nan
field stddev -nan
field min -nan
field max -nan
field sum 0
field sqrsum 0
attr interpolationmode none
attr title "pMacDelay, histogram"
bin	-inf	0
bin	0	0
bin	1	0
statistic TestScenario7.roboticArm2.eth.mac eMacDelay:histogram
field count 0
field mean -nan
field stddev -nan
field min -nan
field max -nan
field sum 0
field sqrsum 0
attr interpolationmode none
attr title "eMacDelay, histogram"
bin	-inf	0
bin	0	0
bin	1	0
scalar TestScenario7.roboticArm2.eth.mac expressFramesEnqueued:count 0
attr interpolationmode none
attr source expressFrameEnqueuedWhileSendingPreemptableSignal
attr title "express frames enqueued, count"
scalar TestScenario7.roboticArm2.eth.mac mPacketsFull:count 0
attr interpolationmode none
attr source transmittedPreemptableFullSignal
attr title "mpackets full, count"
scalar TestScenario7.roboticArm2.eth.mac mPacketsFinal:count 0
attr interpolationmode none
attr source transmittedPreemptableFinalSignal
attr title "mPackets final, count"
scalar TestScenario7.roboticArm2.eth.mac mPacketsNonFinal:count 0
attr interpolationmode none
attr source transmittedPreemptableNonFinalSignal
attr title "mPackets non-final, count"
scalar TestScenario7.roboticArm2.eth.mac mPackets:count 0
attr interpolationmode none
attr source transmittedPreemptableFramePartSignal
attr title "mPackets, count"
scalar TestScenario7.roboticArm2.eth.mac preemptableFrames:count 0
attr interpolationmode none
attr source transmittedPreemptableFrameSignal
attr title "preemptableFrames, count"
scalar TestScenario7.roboticArm2.eth.mac expressFrames:count 0
attr interpolationmode none
attr source transmittedExpressFrameSignal
attr title "expressFrames, count"
scalar TestScenario7.roboticArm2.eth.mac preemptions:count 0
attr interpolationmode none
attr source preemptCurrentFrameSignal
attr title "preemptions, count"
scalar TestScenario7.roboticArm2.eth.mac rxPausePkUnits:count 0
attr interpolationmode none
attr title "pause units received, count"
scalar TestScenario7.roboticArm2.eth.mac rxPausePkUnits:sum 0
attr interpolationmode none
attr title "pause units received, sum"
scalar TestScenario7.roboticArm2.eth.mac txPausePkUnits:count 0
attr interpolationmode none
attr title "pause units sent, count"
scalar TestScenario7.roboticArm2.eth.mac txPausePkUnits:sum 0
attr interpolationmode none
attr title "pause units sent, sum"
scalar TestScenario7.roboticArm2.eth.mac rxPkOk:count 0
attr interpolationmode none
attr source rxPkOk
attr title "packets received OK, count"
scalar TestScenario7.roboticArm2.eth.mac rxPkOk:sum(packetBytes) 0
attr interpolationmode none
attr source rxPkOk
attr title "packets received OK, sum(packetBytes)"
scalar TestScenario7.roboticArm2.eth.mac txPk:count 0
attr interpolationmode none
attr source packetSentToLower
attr title "packets transmitted, count"
scalar TestScenario7.roboticArm2.eth.mac txPk:sum(packetBytes) 0
attr interpolationmode none
attr source packetSentToLower
attr title "packets transmitted, sum(packetBytes)"
scalar TestScenario7.roboticArm2.eth.mac packetReceivedFromUpper:count 0
attr interpolationmode none
attr source packetReceivedFromUpper
attr title "packet bytes from higher layer, count"
scalar TestScenario7.roboticArm2.eth.mac packetReceivedFromUpper:sum(packetBytes) 0
attr interpolationmode none
attr source packetReceivedFromUpper
attr title "packet bytes from higher layer, sum(packetBytes)"
scalar TestScenario7.roboticArm2.eth.mac passedUpPk:count 0
attr interpolationmode none
attr source packetSentToUpper
attr title "packets passed to higher layer, count"
scalar TestScenario7.roboticArm2.eth.mac passedUpPk:sum(packetBytes) 0
attr interpolationmode none
attr source packetSentToUpper
attr title "packets passed to higher layer, sum(packetBytes)"
scalar TestScenario7.roboticArm2.eth.mac packetDropIncorrectlyReceived:count 0
attr interpolationmode none
attr source packetDropReasonIsIncorrectlyReceived(packetDropped)
attr title "packet drop: incorrectly received, count"
scalar TestScenario7.roboticArm2.eth.mac packetDropIncorrectlyReceived:sum(packetBytes) 0
attr interpolationmode none
attr source packetDropReasonIsIncorrectlyReceived(packetDropped)
attr title "packet drop: incorrectly received, sum(packetBytes)"
scalar TestScenario7.roboticArm2.eth.mac packetDropInterfaceDown:count 0
attr interpolationmode none
attr source packetDropReasonIsInterfaceDown(packetDropped)
attr title "packet drop: interface down, count"
scalar TestScenario7.roboticArm2.eth.mac packetDropInterfaceDown:sum(packetBytes) 0
attr interpolationmode none
attr source packetDropReasonIsInterfaceDown(packetDropped)
attr title "packet drop: interface down, sum(packetBytes)"
scalar TestScenario7.roboticArm2.eth.mac packetDropNotAddressedToUs:count 0
attr interpolationmode none
attr source packetDropReasonIsNotAddressedToUs(packetDropped)
attr title "packet drop: not addressed to us, count"
scalar TestScenario7.roboticArm2.eth.mac packetDropNotAddressedToUs:sum(packetBytes) 0
attr interpolationmode none
attr source packetDropReasonIsNotAddressedToUs(packetDropped)
attr title "packet drop: not addressed to us, sum(packetBytes)"
scalar TestScenario7.roboticArm2.eth.queuing.queues[0] dropPk:count 0
attr interpolationmode none
attr source dropPkByQueue
attr title "dropped packets, count"
scalar TestScenario7.roboticArm2.eth.queuing.queues[0] dropPk:sum(packetBytes) 0
attr interpolationmode none
attr source dropPkByQueue
attr title "dropped packets, sum(packetBytes)"
scalar TestScenario7.roboticArm2.eth.queuing.queues[0] rcvdPk:count 0
attr interpolationmode none
attr title "received packets, count"
scalar TestScenario7.roboticArm2.eth.queuing.queues[0] rcvdPk:sum(packetBytes) 0
attr interpolationmode none
attr title "received packets, sum(packetBytes)"
statistic TestScenario7.roboticArm2.eth.queuing.queues[0] queueingTime:histogram
field count 0
field mean -nan
field stddev -nan
field min -nan
field max -nan
field sum 0
field sqrsum 0
attr interpolationmode none
attr title "queueing time, histogram"
bin	-inf	0
bin	0	0
bin	1	0
scalar TestScenario7.roboticArm2.eth.queuing.queues[0] queueLength:max 0
attr interpolationmode sample-hold
attr title "queue length, max"
scalar TestScenario7.roboticArm2.eth.queuing.queues[0] queueLength:timeavg 0
attr interpolationmode sample-hold
attr title "queue length, timeavg"
scalar TestScenario7.roboticArm2.eth.queuing.queues[1] dropPk:count 0
attr interpolationmode none
attr source dropPkByQueue
attr title "dropped packets, count"
scalar TestScenario7.roboticArm2.eth.queuing.queues[1] dropPk:sum(packetBytes) 0
attr interpolationmode none
attr source dropPkByQueue
attr title "dropped packets, sum(packetBytes)"
scalar TestScenario7.roboticArm2.eth.queuing.queues[1] rcvdPk:count 0
attr interpolationmode none
attr title "received packets, count"
scalar TestScenario7.roboticArm2.eth.queuing.queues[1] rcvdPk:sum(packetBytes) 0
attr interpolationmode none
attr title "received packets, sum(packetBytes)"
statistic TestScenario7.roboticArm2.eth.queuing.queues[1] queueingTime:histogram
field count 0
field mean -nan
field stddev -nan
field min -nan
field max -nan
field sum 0
field sqrsum 0
attr interpolationmode none
attr title "queueing time, histogram"
bin	-inf	0
bin	0	0
bin	1	0
scalar TestScenario7.roboticArm2.eth.queuing.queues[1] queueLength:max 0
attr interpolationmode sample-hold
attr title "queue length, max"
scalar TestScenario7.roboticArm2.eth.queuing.queues[1] queueLength:timeavg 0
attr interpolationmode sample-hold
attr title "queue length, timeavg"
scalar TestScenario7.roboticArm2.eth.queuing.queues[2] dropPk:count 0
attr interpolationmode none
attr source dropPkByQueue
attr title "dropped packets, count"
scalar TestScenario7.roboticArm2.eth.queuing.queues[2] dropPk:sum(packetBytes) 0
attr interpolationmode none
attr source dropPkByQueue
attr title "dropped packets, sum(packetBytes)"
scalar TestScenario7.roboticArm2.eth.queuing.queues[2] rcvdPk:count 0
attr interpolationmode none
attr title "received packets, count"
scalar TestScenario7.roboticArm2.eth.queuing.queues[2] rcvdPk:sum(packetBytes) 0
attr interpolationmode none
attr title "received packets, sum(packetBytes)"
statistic TestScenario7.roboticArm2.eth.queuing.queues[2] queueingTime:histogram
field count 0
field mean -nan
field stddev -nan
field min -nan
field max -nan
field sum 0
field sqrsum 0
attr interpolationmode none
attr title "queueing time, histogram"
bin	-inf	0
bin	0	0
bin	1	0
scalar TestScenario7.roboticArm2.eth.queuing.queues[2] queueLength:max 0
attr interpolationmode sample-hold
attr title "queue length, max"
scalar TestScenario7.roboticArm2.eth.queuing.queues[2] queueLength:timeavg 0
attr interpolationmode sample-hold
attr title "queue length, timeavg"
scalar TestScenario7.roboticArm2.eth.queuing.queues[3] dropPk:count 0
attr interpolationmode none
attr source dropPkByQueue
attr title "dropped packets, count"
scalar TestScenario7.roboticArm2.eth.queuing.queues[3] dropPk:sum(packetBytes) 0
attr interpolationmode none
attr source dropPkByQueue
attr title "dropped packets, sum(packetBytes)"
scalar TestScenario7.roboticArm2.eth.queuing.queues[3] rcvdPk:count 0
attr interpolationmode none
attr title "received packets, count"
scalar TestScenario7.roboticArm2.eth.queuing.queues[3] rcvdPk:sum(packetBytes) 0
attr interpolationmode none
attr title "received packets, sum(packetBytes)"
statistic TestScenario7.roboticArm2.eth.queuing.queues[3] queueingTime:histogram
field count 0
field mean -nan
field stddev -nan
field min -nan
field max -nan
field sum 0
field sqrsum 0
attr interpolationmode none
attr title "queueing time, histogram"
bin	-inf	0
bin	0	0
bin	1	0
scalar TestScenario7.roboticArm2.eth.queuing.queues[3] queueLength:max 0
attr interpolationmode sample-hold
attr title "queue length, max"
scalar TestScenario7.roboticArm2.eth.queuing.queues[3] queueLength:timeavg 0
attr interpolationmode sample-hold
attr title "queue length, timeavg"
scalar TestScenario7.roboticArm2.eth.queuing.queues[4] dropPk:count 0
attr interpolationmode none
attr source dropPkByQueue
attr title "dropped packets, count"
scalar TestScenario7.roboticArm2.eth.queuing.queues[4] dropPk:sum(packetBytes) 0
attr interpolationmode none
attr source dropPkByQueue
attr title "dropped packets, sum(packetBytes)"
scalar TestScenario7.roboticArm2.eth.queuing.queues[4] rcvdPk:count 0
attr interpolationmode none
attr title "received packets, count"
scalar TestScenario7.roboticArm2.eth.queuing.queues[4] rcvdPk:sum(packetBytes) 0
attr interpolationmode none
attr title "received packets, sum(packetBytes)"
statistic TestScenario7.roboticArm2.eth.queuing.queues[4] queueingTime:histogram
field count 0
field mean -nan
field stddev -nan
field min -nan
field max -nan
field sum 0
field sqrsum 0
attr interpolationmode none
attr title "queueing time, histogram"
bin	-inf	0
bin	0	0
bin	1	0
scalar TestScenario7.roboticArm2.eth.queuing.queues[4] queueLength:max 0
attr interpolationmode sample-hold
attr title "queue length, max"
scalar TestScenario7.roboticArm2.eth.queuing.queues[4] queueLength:timeavg 0
attr interpolationmode sample-hold
attr title "queue length, timeavg"
scalar TestScenario7.roboticArm2.eth.queuing.queues[5] dropPk:count 0
attr interpolationmode none
attr source dropPkByQueue
attr title "dropped packets, count"
scalar TestScenario7.roboticArm2.eth.queuing.queues[5] dropPk:sum(packetBytes) 0
attr interpolationmode none
attr source dropPkByQueue
attr title "dropped packets, sum(packetBytes)"
scalar TestScenario7.roboticArm2.eth.queuing.queues[5] rcvdPk:count 0
attr interpolationmode none
attr title "received packets, count"
scalar TestScenario7.roboticArm2.eth.queuing.queues[5] rcvdPk:sum(packetBytes) 0
attr interpolationmode none
attr title "received packets, sum(packetBytes)"
statistic TestScenario7.roboticArm2.eth.queuing.queues[5] queueingTime:histogram
field count 0
field mean -nan
field stddev -nan
field min -nan
field max -nan
field sum 0
field sqrsum 0
attr interpolationmode none
attr title "queueing time, histogram"
bin	-inf	0
bin	0	0
bin	1	0
scalar TestScenario7.roboticArm2.eth.queuing.queues[5] queueLength:max 0
attr interpolationmode sample-hold
attr title "queue length, max"
scalar TestScenario7.roboticArm2.eth.queuing.queues[5] queueLength:timeavg 0
attr interpolationmode sample-hold
attr title "queue length, timeavg"
scalar TestScenario7.roboticArm2.eth.queuing.queues[6] dropPk:count 0
attr interpolationmode none
attr source dropPkByQueue
attr title "dropped packets, count"
scalar TestScenario7.roboticArm2.eth.queuing.queues[6] dropPk:sum(packetBytes) 0
attr interpolationmode none
attr source dropPkByQueue
attr title "dropped packets, sum(packetBytes)"
scalar TestScenario7.roboticArm2.eth.queuing.queues[6] rcvdPk:count 0
attr interpolationmode none
attr title "received packets, count"
scalar TestScenario7.roboticArm2.eth.queuing.queues[6] rcvdPk:sum(packetBytes) 0
attr interpolationmode none
attr title "received packets, sum(packetBytes)"
statistic TestScenario7.roboticArm2.eth.queuing.queues[6] queueingTime:histogram
field count 0
field mean -nan
field stddev -nan
field min -nan
field max -nan
field sum 0
field sqrsum 0
attr interpolationmode none
attr title "queueing time, histogram"
bin	-inf	0
bin	0	0
bin	1	0
scalar TestScenario7.roboticArm2.eth.queuing.queues[6] queueLength:max 0
attr interpolationmode sample-hold
attr title "queue length, max"
scalar TestScenario7.roboticArm2.eth.queuing.queues[6] queueLength:timeavg 0
attr interpolationmode sample-hold
attr title "queue length, timeavg"
scalar TestScenario7.roboticArm2.eth.queuing.queues[7] dropPk:count 0
attr interpolationmode none
attr source dropPkByQueue
attr title "dropped packets, count"
scalar TestScenario7.roboticArm2.eth.queuing.queues[7] dropPk:sum(packetBytes) 0
attr interpolationmode none
attr source dropPkByQueue
attr title "dropped packets, sum(packetBytes)"
scalar TestScenario7.roboticArm2.eth.queuing.queues[7] rcvdPk:count 0
attr interpolationmode none
attr title "received packets, count"
scalar TestScenario7.roboticArm2.eth.queuing.queues[7] rcvdPk:sum(packetBytes) 0
attr interpolationmode none
attr title "received packets, sum(packetBytes)"
statistic TestScenario7.roboticArm2.eth.queuing.queues[7] queueingTime:histogram
field count 0
field mean -nan
field stddev -nan
field min -nan
field max -nan
field sum 0
field sqrsum 0
attr interpolationmode none
attr title "queueing time, histogram"
bin	-inf	0
bin	0	0
bin	1	0
scalar TestScenario7.roboticArm2.eth.queuing.queues[7] queueLength:max 0
attr interpolationmode sample-hold
attr title "queue length, max"
scalar TestScenario7.roboticArm2.eth.queuing.queues[7] queueLength:timeavg 0
attr interpolationmode sample-hold
attr title "queue length, timeavg"
scalar TestScenario7.roboticArm2.eth.vlanEncapE decapPk:count 0
attr interpolationmode none
attr source decapPk
attr title "packets decapsulated, count"
scalar TestScenario7.roboticArm2.eth.vlanEncapE decapPk:sum(packetBytes) 0
attr interpolationmode none
attr source decapPk
attr title "packets decapsulated, sum(packetBytes)"
scalar TestScenario7.roboticArm2.eth.vlanEncapE encapPk:count 0
attr interpolationmode none
attr source encapPk
attr title "packets encapsulated, count"
scalar TestScenario7.roboticArm2.eth.vlanEncapE encapPk:sum(packetBytes) 0
attr interpolationmode none
attr source encapPk
attr title "packets encapsulated, sum(packetBytes)"
scalar TestScenario7.roboticArm2.eth.etherEncapE pauseSent:count 0
attr title "pause sent, count"
scalar TestScenario7.roboticArm2.eth.etherEncapE pauseSent:sum 0
attr title "pause sent, sum"
scalar TestScenario7.roboticArm2.eth.etherEncapE decapPk:count 0
attr interpolationmode none
attr source decapPk
attr title "packets decapsulated, count"
scalar TestScenario7.roboticArm2.eth.etherEncapE decapPk:sum(packetBytes) 0
attr interpolationmode none
attr source decapPk
attr title "packets decapsulated, sum(packetBytes)"
scalar TestScenario7.roboticArm2.eth.etherEncapE encapPk:count 0
attr interpolationmode none
attr source encapPk
attr title "packets encapsulated, count"
scalar TestScenario7.roboticArm2.eth.etherEncapE encapPk:sum(packetBytes) 0
attr interpolationmode none
attr source encapPk
attr title "packets encapsulated, sum(packetBytes)"
scalar TestScenario7.roboticArm2.eth.vlanEncapP decapPk:count 0
attr interpolationmode none
attr source decapPk
attr title "packets decapsulated, count"
scalar TestScenario7.roboticArm2.eth.vlanEncapP decapPk:sum(packetBytes) 0
attr interpolationmode none
attr source decapPk
attr title "packets decapsulated, sum(packetBytes)"
scalar TestScenario7.roboticArm2.eth.vlanEncapP encapPk:count 0
attr interpolationmode none
attr source encapPk
attr title "packets encapsulated, count"
scalar TestScenario7.roboticArm2.eth.vlanEncapP encapPk:sum(packetBytes) 0
attr interpolationmode none
attr source encapPk
attr title "packets encapsulated, sum(packetBytes)"
scalar TestScenario7.roboticArm2.eth.etherEncapP pauseSent:count 0
attr title "pause sent, count"
scalar TestScenario7.roboticArm2.eth.etherEncapP pauseSent:sum 0
attr title "pause sent, sum"
scalar TestScenario7.roboticArm2.eth.etherEncapP decapPk:count 0
attr interpolationmode none
attr source decapPk
attr title "packets decapsulated, count"
scalar TestScenario7.roboticArm2.eth.etherEncapP decapPk:sum(packetBytes) 0
attr interpolationmode none
attr source decapPk
attr title "packets decapsulated, sum(packetBytes)"
scalar TestScenario7.roboticArm2.eth.etherEncapP encapPk:count 0
attr interpolationmode none
attr source encapPk
attr title "packets encapsulated, count"
scalar TestScenario7.roboticArm2.eth.etherEncapP encapPk:sum(packetBytes) 0
attr interpolationmode none
attr source encapPk
attr title "packets encapsulated, sum(packetBytes)"

